CRYSTAL
PRIMVEC 
      94.48631565       0.00000000       0.00000000
       0.00000000      94.48631565       0.00000000
       0.00000000       0.00000000      94.48631565


CONVVEC 
      94.48631565       0.00000000       0.00000000
       0.00000000      94.48631565       0.00000000
       0.00000000       0.00000000      94.48631565
PRIMCOORD 
  593     1
 C   45.49614100 50.71358400 30.74727300
 C   45.44695500 50.61629200 36.86199300
 C   46.84051700 53.04159700 30.72012300
 C   48.13412800 50.61624900 36.85583800
 C   49.52805500 48.38449600 30.68749800
 C   49.47733900 48.29192700 36.84439100
 C   50.86981100 50.71361800 30.67023400
 C   52.16534100 48.29244300 36.82874100
 C   45.49790100 55.36845100 30.68459100
 C   45.44504100 55.26867300 36.84500100
 C   46.84312900 57.69712800 30.64305700
 C   48.13171000 55.26522400 36.84070200
 C   49.52766800 53.04256500 30.68443200
 C   49.47756000 52.94042900 36.84507200
 C   50.87189800 55.37190800 30.64252300
 C   52.16546000 52.93970400 36.83108500
 C   45.40501100 50.49752900 42.93643900
 C   45.37284100 50.39899600 49.05200900
 C   46.74862200 52.82414000 42.94130300
 C   48.06176400 50.39865000 49.07581200
 C   49.43393900 48.16923400 42.95436600
 C   49.40596900 48.07269200 49.11288400
 C   50.77445500 50.49720400 42.95924800
 C   52.09561200 48.07244100 49.15590600
 C   45.40714400 55.14967600 42.95282200
 C   45.37090000 55.05384600 49.10900500
 C   46.75158400 57.47686600 42.97085800
 C   48.05927700 55.05064400 49.12556800
 C   49.43404600 52.82538500 42.95292600
 C   49.40594400 52.72436300 49.11019100
 C   50.77729600 55.15340000 42.97056100
 C   52.09558300 52.72321900 49.15560800
 C   57.59608400 48.38561600 30.63650600
 C   57.53809200 48.28918500 36.82937400
 C   58.93672100 50.71418800 30.66037900
 C   60.25297600 48.29450500 36.86041800
 C   57.49495500 48.16947200 42.97970000
 C   57.47338600 48.06813000 49.14648500
 C   58.83479400 50.49634000 42.97284500
 C   60.19033300 48.07252700 49.05555700
 C   53.55721500 50.71352400 30.62916500
 C   53.50721300 50.61602500 36.82556900
 C   54.90069700 53.04362000 30.61950200
 C   56.20206700 50.61613600 36.82508400
 C   53.45990500 50.49682200 42.97708200
 C   53.43875000 50.39770500 49.16569000
 C   54.80219800 52.82540800 42.98342900
 C   56.13575600 50.39698200 49.17026200
 C   57.59813000 43.73268600 30.67487600
 C   57.53364400 43.63275300 36.82702000
 C   58.93570800 46.05311400 30.67535800
 C   60.25186500 43.65419900 36.86225400
 C   57.49711000 43.51986800 42.96475000
 C   57.46935000 43.40847600 49.11986900
 C   58.83377500 45.83816600 42.96610100
 C   60.18889200 43.42812200 49.03031500
 C   53.56166300 46.05768500 30.62081600
 C   53.50577800 45.96407800 36.81795900
 C   54.90104000 48.38369800 30.61831700
 C   56.19880200 45.96428600 36.81959700
 C   53.46427100 45.84347300 42.97887100
 C   53.43753300 45.74250400 49.17789100
 C   54.80197300 48.16793600 42.98193400
 C   56.13305900 45.74212700 49.16468800
 C   57.59709100 57.69505800 30.68711900
 C   57.53353800 57.59996700 36.85222000
 C   58.93842900 60.06009600 30.78307700
 C   60.25164200 57.57896000 36.89271100
 C   57.49808300 57.47338900 42.97821900
 C   57.46887000 57.38562500 49.13919300
 C   58.83914300 59.83818400 42.94962100
 C   60.18844300 57.36578400 49.05318600
 C   45.49203000 64.68245300 30.69087600
 C   45.45042500 64.57665800 36.85503100
 C   46.86870500 67.02710900 30.78697400
 C   48.12659600 64.57442800 36.86618000
 C   49.52937200 62.35599000 30.66585600
 C   49.47545800 62.24890500 36.84441200
 C   50.89116800 64.70629000 30.76493600
 C   52.16051700 62.24566100 36.86187700
 C   45.40041500 64.45619400 42.98256300
 C   45.37642800 64.36789600 49.14042300
 C   46.77725900 66.79993300 42.95501900
 C   48.05475600 64.36547200 49.14854400
 C   49.43584200 62.13202100 42.98616600
 C   49.40478400 62.03870100 49.18160500
 C   50.79712000 64.48082700 42.96490100
 C   52.09153900 62.03525000 49.16642300
 C   53.56293400 60.02738900 30.66493100
 C   53.50554900 59.92185300 36.84389300
 C   54.91659300 62.38223100 30.76403400
 C   56.19382100 59.91658400 36.86486500
 C   53.46695200 59.80515800 42.98527700
 C   53.43750400 59.70991700 49.18154800
 C   54.81996900 62.15891000 42.96373500
 C   56.12762000 59.70360800 49.14806300
 C   57.59572000 53.04226700 30.63900900
 C   57.53808900 52.94316500 36.83437500
 C   58.93498500 55.37522400 30.68210000
 C   60.25280600 52.93845700 36.86669400
 C   57.49529200 52.82348300 42.98139700
 C   57.47296400 52.72574500 49.15032500
 C   58.83444800 55.15462900 42.97106000
 C   60.18984500 52.72121100 49.06083900
 C   45.49656900 60.02436500 30.62479400
 C   45.44643500 59.92175800 36.82671900
 C   46.84449200 62.35825700 30.64369300
 C   48.12851600 59.91753900 36.82790200
 C   49.52917300 57.69766400 30.63475800
 C   49.47377600 57.59043900 36.82862400
 C   50.87722700 60.03326700 30.63827800
 C   52.16170300 57.58873100 36.82741800
 C   45.40551100 59.80217000 42.98412600
 C   45.37220300 59.70955800 49.18128300
 C   46.75210900 62.13412900 42.98937100
 C   48.05646600 59.70585400 49.18754900
 C   49.43573500 57.47752800 42.97765400
 C   49.40252500 57.37725900 49.17220000
 C   50.78296500 59.81123600 42.98726400
 C   52.09227100 57.37542500 49.18783700
 C   53.56108100 55.36942500 30.62323100
 C   53.50592000 55.26805900 36.82565900
 C   54.90769200 57.70399300 30.64171200
 C   56.19894600 55.26818700 36.83035700
 C   53.46467400 55.15025100 42.98295000
 C   53.43738600 55.05281800 49.18179800
 C   54.81066300 57.48258300 42.98756200
 C   56.13274700 55.05189500 49.17273500
 H   27.32460000 41.36984700 30.94488000
 H   28.27743600 39.55884800 36.93262800
 H   27.24033400 41.16338300 42.78264500
 H   28.18941300 39.34108700 48.80724600
 H   41.82010200 30.31287900 30.91460700
 C   42.86393200 32.09366400 30.81518700
 H   44.45115700 30.21838700 36.92213500
 H   41.73406300 30.10642300 42.74200000
 C   42.77649100 31.88856800 42.81745300
 H   44.38289600 29.99102500 48.80080500
 H   29.65759900 37.33485900 30.91667800
 C   30.67979900 39.12794600 30.81765600
 H   32.31696900 37.22932200 36.89737100
 H   33.71120200 34.99401400 30.84466400
 C   34.74394000 36.78588100 30.75211500
 H   29.57403500 37.12716700 42.74166600
 C   30.59779300 38.92017600 42.81805300
 H   32.23493500 37.00644600 48.84667600
 H   33.62608700 34.78694800 42.75319000
 C   34.66023600 36.57871300 42.83285800
 H   37.76879900 32.65214700 30.84456600
 C   38.80399700 34.44242800 30.75179700
 H   40.41567900 32.55303400 36.89386400
 H   37.68160300 32.44456000 42.75475900
 C   38.71751700 34.23552700 42.83355000
 H   40.33991000 32.32860600 48.84314200
 H   46.48199500 30.30660700 30.93863100
 H   46.39676700 30.10191600 42.77834800
 H   25.94809200 48.27818300 36.93415600
 C   28.01847900 48.27625100 36.88334000
 H   25.86581100 48.05755400 48.89007000
 C   27.93309200 48.05597300 48.99445400
 H   25.94872700 43.59766000 36.95328500
 H   27.32827400 46.03679500 30.92159600
 C   28.01478300 43.58706100 36.89982700
 H   25.86700200 43.38018500 48.82387900
 H   27.24347900 45.82431500 42.84382000
 C   27.93006200 43.36681500 48.93083700
 H   25.94981100 57.64249900 36.95518900
 H   27.32546300 60.06214200 30.98439600
 C   28.01589400 57.65139200 36.90713900
 H   25.86595700 57.41985100 48.83017400
 H   27.24048600 59.83411900 42.84813600
 C   27.92892800 57.43273600 48.94052800
 H   25.94820600 52.96031200 36.92693100
 H   27.32796500 55.39478700 30.93767500
 C   28.01864000 52.96182600 36.88096500
 H   25.86575600 52.74048100 48.88880500
 H   27.24302100 55.17272800 42.86673000
 C   27.93284500 52.74287600 48.99518000
 C   29.38874900 41.35839400 30.83198000
 C   29.30023500 41.35468000 36.88954500
 C   30.67841400 43.74797000 30.74722400
 C   32.01357100 41.27645100 36.84760300
 C   33.39456400 39.04774200 30.72851600
 C   33.35293800 39.01973300 36.85494800
 C   34.73829500 41.40932600 30.65100600
 C   36.03184100 38.95461800 36.83339400
 C   29.39398500 46.03925200 30.80205200
 C   29.30291700 45.97764200 36.86352600
 C   30.67836700 48.39194500 30.73996600
 C   32.01883400 45.96005000 36.82709100
 C   33.39789300 43.72758500 30.66021900
 C   33.35485100 43.64090100 36.81986300
 C   34.73489600 46.06094200 30.62682800
 C   36.04200200 43.63091000 36.81072300
 C   29.30713500 41.14937700 42.83927200
 C   29.21437500 41.13264800 48.92230200
 C   30.59667700 43.53684100 42.90459700
 C   31.92856600 41.05299600 49.01849000
 C   33.31209500 38.83983200 42.87050000
 C   33.27011000 38.79442800 48.96768700
 C   34.65526000 41.19911200 42.93396200
 C   35.95043800 38.73061400 49.03791300
 C   29.31229300 45.82506400 42.89760800
 C   29.21761400 45.75691300 49.02632700
 C   30.59638300 48.17650700 42.93058400
 C   31.93415200 45.73844900 49.11854600
 C   33.31545600 43.51568400 42.94646500
 C   33.27080800 43.41792300 49.11380900
 C   34.65126000 45.84680200 42.96861300
 C   35.96049800 43.40889800 49.15912700
 C   41.46263300 39.07457300 30.61673000
 C   41.41541300 38.98096300 36.81172200
 C   42.81206300 41.40694100 30.61078500
 C   44.09890900 38.97899700 36.80885600
 C   41.37416400 38.86594300 42.95518200
 C   41.33899500 38.75685500 49.13590300
 C   42.72260400 41.19658400 42.97160000
 C   44.02407100 38.75407300 49.15808300
 C   37.42901500 41.40310300 30.61723100
 C   37.38522300 41.30796800 36.81260800
 C   38.77543400 43.73723100 30.61117400
 C   40.06885000 41.30181900 36.81078000
 C   37.34383700 41.19296100 42.95541600
 C   37.30484700 41.08532100 49.13638100
 C   38.68904000 43.52550000 42.97183900
 C   39.99101200 41.07945700 49.16305900
 C   41.43813900 34.40464300 30.72727600
 C   41.44860800 34.34515300 36.85214400
 C   42.81273500 36.74807400 30.64964200
 C   44.07285700 34.31304100 36.84271300
 C   41.35022600 34.19858300 42.87064500
 C   41.37171500 34.11831000 48.96504300
 C   42.72295200 36.54078500 42.93333200
 C   43.99889500 34.08486800 49.01436700
 C   37.41754900 36.72819500 30.70288900
 C   37.40028500 36.68153100 36.84848200
 C   38.77506300 39.07796300 30.63209400
 C   40.05348600 36.63250200 36.83232500
 C   37.33223800 36.52076700 42.87638800
 C   37.32162600 36.45726700 48.96723400
 C   38.68863000 38.86899600 42.93735300
 C   39.97668900 36.40702300 49.03699900
 C   41.46274900 48.38824700 30.68915600
 C   41.41854400 48.28819400 36.84567400
 C   42.80694400 50.71396300 30.72387900
 C   44.10355600 48.28946200 36.85706900
 C   41.37399600 48.17355700 42.95360600
 C   41.34154800 48.06995600 49.11484400
 C   42.71757300 50.49767100 42.94260000
 C   44.02849500 48.07090600 49.07954400
 C   29.39366500 55.39237900 30.81643200
 C   29.30323500 55.26014500 36.86550100
 C   30.67854500 57.68355000 30.77093600
 C   32.01930800 55.27642800 36.83249900
 C   33.39480200 53.04438700 30.65408800
 C   33.35820000 52.94504400 36.81920600
 C   34.73494900 55.37039100 30.63611700
 C   36.05116700 52.94617400 36.81720200
 C   29.31192600 55.17138000 42.91529000
 C   29.21661700 55.04221600 49.03098400
 C   30.59663300 57.45933300 42.93483300
 C   31.93330900 55.05996900 49.12411300
 C   33.31148100 52.82489700 42.96885300
 C   33.27327400 52.72747400 49.16278700
 C   34.65130600 55.14947800 42.97874500
 C   35.96863200 52.72884700 49.18046300
 C   37.42963500 50.71504400 30.63444100
 C   37.39331900 50.61706700 36.82190500
 C   38.77280700 53.04024000 30.64469400
 C   40.07847200 50.61664400 36.83955600
 C   37.34340600 50.49815300 42.97316300
 C   37.31268800 50.39917300 49.16973100
 C   38.68577400 52.82152500 42.96972100
 C   40.00000700 50.39907800 49.12841800
 C   41.46588300 43.73534400 30.62642600
 C   41.41632800 43.63560900 36.82067900
 C   42.80943100 46.06188700 30.67314500
 C   44.10012300 43.63642800 36.82747900
 C   41.37747700 43.52361500 42.97062700
 C   41.33958400 43.41488100 49.16606300
 C   42.72012500 45.84868300 42.95817200
 C   44.02569600 43.41526900 49.15802800
 C   29.39478300 50.71583500 30.81169000
 C   29.30538500 50.61886400 36.85660200
 C   30.67819400 53.03989100 30.74569300
 C   32.01826900 50.61827200 36.82573500
 C   33.39495900 48.38717600 30.64961100
 C   33.35802200 48.29095100 36.81727100
 C   34.73248000 50.71572200 30.62992600
 C   36.05101900 48.28838700 36.81541000
 C   29.31253300 50.49814800 42.91215100
 C   29.21901400 50.39945400 49.05191700
 C   30.59610200 52.81987400 42.93676700
 C   31.93257300 50.39919000 49.13948400
 C   33.31160700 48.17162400 42.96416900
 C   33.27368600 48.07110100 49.16106100
 C   34.64816100 50.49827300 42.97352300
 C   35.96893300 48.06933300 49.18019500
 C   37.43056900 46.05994400 30.61764400
 C   37.38819900 45.96321800 36.81563200
 C   38.77276000 48.38950700 30.64413900
 C   40.07528700 45.96005500 36.82792000
 C   37.34469000 45.84629200 42.97346000
 C   37.30781600 45.74327100 49.17694800
 C   38.68572900 48.17452500 42.96775400
 C   39.99718300 45.74070600 49.15749800
 C   45.44167000 32.08952600 30.82755000
 C   45.49575800 32.00194400 36.88011500
 C   46.86798100 34.40045700 30.74296600
 C   48.07196600 32.00448200 36.88606800
 H   49.11159400 30.21940700 36.93448600
 H   50.52465500 32.64179900 30.91375000
 C   45.49146700 36.74548300 30.65779200
 C   45.45005600 36.65679400 36.81572300
 C   46.84470100 39.06948900 30.62481100
 C   48.12639300 36.65881300 36.82051500
 C   49.49533900 34.43289500 30.79633200
 C   49.49811200 34.31538100 36.85170300
 C   50.89171900 36.72118200 30.73495900
 C   52.13087400 34.35302400 36.86743000
 C   45.35259900 31.88498900 42.83632800
 C   45.42385700 31.77368300 48.91544100
 C   46.77658300 34.19467700 42.90095900
 C   48.00151900 31.77705400 48.92151900
 H   49.04316900 29.99559600 48.81335800
 H   50.43228100 32.43298700 42.83762200
 C   45.39966500 36.53827100 42.94436700
 C   45.37607700 36.42952000 49.11065100
 C   46.75137800 38.86018200 42.96653700
 C   48.05427000 36.43148000 49.11370200
 C   49.40088900 34.22598400 42.89212800
 C   49.42748000 34.08784300 49.01780100
 C   50.79617800 36.51331100 42.92515000
 C   52.06098400 34.12551900 48.98394300
 H   53.16678000 32.56136700 36.91233200
 H   53.09636600 32.33635500 48.87716500
 C   57.59827800 39.10870200 30.80878100
 C   57.53707900 38.95561100 36.85279500
 C   58.93987800 41.36771500 30.76300900
 C   60.25148200 39.03589600 36.89161300
 C   57.49781400 38.89904900 42.90686400
 C   57.46968200 38.72867300 49.02231900
 C   58.83765900 41.15508600 42.92594500
 C   60.18420400 38.80760100 48.93021100
 C   45.49821900 46.05873300 30.68932100
 C   45.44471900 45.96380900 36.84551300
 C   46.84084100 48.38558500 30.72409000
 C   48.13145000 45.96718300 36.83915200
 C   49.52988900 43.72950900 30.63344900
 C   49.47353000 43.64196100 36.82027800
 C   50.87249400 46.05530100 30.64386200
 C   52.16160900 43.64350900 36.81442500
 C   45.40710500 45.84524800 42.95386900
 C   45.37095400 45.74403300 49.11592900
 C   46.74860900 48.17074300 42.94296200
 C   48.05935200 45.74653500 49.13016800
 C   49.43534000 43.51695400 42.97236700
 C   49.40260700 43.41962400 49.17052700
 C   50.77693800 45.84091800 42.96939400
 C   52.09241700 43.42018100 49.18022400
 C   53.56423300 41.39963400 30.65013100
 C   53.50580500 41.31060200 36.81362900
 C   54.90869400 43.72340500 30.63223300
 C   56.19432500 41.31598500 36.82460500
 C   53.46601900 41.18863500 42.96474200
 C   53.43778400 41.08548000 49.15952300
 C   54.80984200 43.51093900 42.97511200
 C   56.12791000 41.09056500 49.11869800
 H   57.22180200 34.90095700 36.90589600
 H   58.63304600 37.32054500 30.92808400
 H   57.15035100 34.67485000 48.87731800
 H   58.53402300 37.10900000 42.85661600
 C   45.49679800 41.40326900 30.61684200
 C   45.44574800 41.31097200 36.81421800
 C   46.84369100 43.73016100 30.64378500
 C   48.12806500 41.31512800 36.81303600
 C   49.52989100 39.07166800 30.64653800
 C   49.47542800 38.98402400 36.81217700
 C   50.87826400 41.39416500 30.62732600
 C   52.16066100 38.98708600 36.81840700
 C   45.40509300 41.19242000 42.97276300
 C   45.37226500 41.08795800 49.17687800
 C   46.75129000 43.51772200 42.96758400
 C   48.05650100 41.09109000 49.17972800
 C   49.43506300 38.86225300 42.96076100
 C   49.40464100 38.75796800 49.15789600
 C   50.78220000 41.18297500 42.97080000
 C   52.09140400 38.76059200 49.13467600
 C   53.54686400 36.77069800 30.80532000
 C   53.51629300 36.63819000 36.84386600
 C   54.91821200 39.04453000 30.73988000
 C   56.18874000 36.69451600 36.86515300
 C   53.44930700 36.56240100 42.90523300
 C   53.44719900 36.41090400 49.04333100
 C   54.81872400 38.83474800 42.93035100
 C   56.12002300 36.46723800 48.98519100
 H   61.27679800 37.24245800 36.93567300
 H   62.67641700 39.65383200 30.97095600
 H   61.20389500 37.01356700 48.81918200
 H   62.57170300 39.43452400 42.83266800
 H   28.28154000 61.68010700 36.96178900
 H   28.19049600 61.45996500 48.83005900
 C   29.38951100 60.07285800 30.87103300
 C   29.30238800 59.88307800 36.91068400
 C   30.68138400 62.30274800 30.87133600
 C   32.01553500 59.95974800 36.87169000
 C   33.39797700 57.70367300 30.68088800
 C   33.35594000 57.59481000 36.83393000
 C   34.73902300 60.02154400 30.68208900
 C   36.04303500 57.60341900 36.82394000
 H   29.66038900 64.09542200 30.98327100
 H   32.32033500 64.00673300 36.93874800
 C   33.39592600 62.38271000 30.77834300
 C   33.35523100 62.21579800 36.89020300
 C   34.74546400 64.64422000 30.81526000
 C   36.03388200 62.27943600 36.86749900
 C   29.30733200 59.84731300 42.89881200
 C   29.21350700 59.66693900 48.94067500
 C   30.59756600 62.07667700 42.90461800
 C   31.92788700 59.74552600 49.03704600
 C   33.31550300 57.48059600 42.97100900
 C   33.27019300 57.38045800 49.12432200
 C   34.65533000 59.79710100 42.97340300
 C   35.96005500 57.38911400 49.16636700
 H   29.57241500 63.86988600 42.85898500
 H   32.23545700 63.79262100 48.87333300
 C   33.31206200 62.15715200 42.94452500
 C   33.26980300 62.00410400 48.99148000
 C   34.66021600 64.41851400 42.93197300
 C   35.95026100 62.06750500 49.05942400
 C   41.46598800 57.69293100 30.63082300
 C   41.41713800 57.59731400 36.82688700
 C   42.81203400 60.02130700 30.62194400
 C   44.10078400 57.59625400 36.83163800
 C   41.37766600 57.47168000 42.97804400
 C   41.33945800 57.38314200 49.16442400
 C   42.72292600 59.79842100 42.98531100
 C   44.02556700 57.38254600 49.15424800
 C   37.42958400 60.02689700 30.64164200
 C   37.38665700 59.92578400 36.83409900
 C   38.77578800 62.35182200 30.66656600
 C   40.07010700 59.93143400 36.82831300
 C   37.34406600 59.80290800 42.98467000
 C   37.30461800 59.71266600 49.14839200
 C   38.68904500 62.12666000 42.97984200
 C   39.99089100 59.71844000 49.17072500
 C   41.46274100 53.03990400 30.68750000
 C   41.41886000 52.94475500 36.84450200
 C   42.80933500 55.36602100 30.67065000
 C   44.10371100 52.94322200 36.85566300
 C   41.37408100 52.82191900 42.95396500
 C   41.34144900 52.72821200 49.11075900
 C   42.72024400 55.14653200 42.95914200
 C   44.02841100 52.72707500 49.07445600
 C   37.43067000 55.37014500 30.62310600
 C   37.38876300 55.27070500 36.82031100
 C   38.77572600 57.69245800 30.62111900
 C   40.07588400 55.27314300 36.82970500
 C   37.34470900 55.14980000 42.98053800
 C   37.30756500 55.05486400 49.17751900
 C   38.68918100 57.47026500 42.98394300
 C   39.99696300 55.05731500 49.15418400
 C   41.43973300 67.02352100 30.78281600
 C   41.44919600 66.88864200 36.90520800
 C   42.86550300 69.33405400 30.87945600
 C   44.07317400 66.92041400 36.89736500
 C   41.35108400 66.79721400 42.94622900
 C   41.37204100 66.68041500 49.00273000
 C   42.77718900 69.10775200 42.91101100
 C   43.99934600 66.71287700 49.05582600
 H   37.77196600 68.77681600 30.92240800
 H   40.41597000 68.68058300 36.95802900
 H   37.68292600 68.55271700 42.88407200
 H   40.34136300 68.47117600 48.88630700
 C   41.46317800 62.35414500 30.64364500
 C   41.41665600 62.25227200 36.83828300
 C   42.81355800 64.68041500 30.68757700
 C   44.09991300 62.25412500 36.83289000
 C   41.37462000 62.12932900 42.98627300
 C   41.33896100 62.04111700 49.15167200
 C   42.72367400 64.45428800 42.97790100
 C   44.02410300 62.04338500 49.17331400
 H   33.71383900 66.43583600 30.92348300
 H   33.62645800 66.21178800 42.89014600
 C   37.41887300 64.70135000 30.75722000
 C   37.40240600 64.55182800 36.89175500
 C   38.80577600 66.98652900 30.81622000
 C   40.05507800 64.60097000 36.87280700
 C   37.33262100 64.47547000 42.95392100
 C   37.32136000 64.34124700 48.99392100
 C   38.71822000 66.76060200 42.93005400
 C   39.97662400 64.39152100 49.06374700
 C   61.65431700 41.44714700 30.86007700
 C   61.54052100 41.26585900 36.89731000
 C   62.94057900 43.68086400 30.85975000
 H   63.60649700 41.27856800 36.94652200
 C   61.65270700 46.07161400 30.76874700
 C   61.53565100 45.94245500 36.88117200
 C   62.93711400 48.37112200 30.80425000
 H   63.60345300 45.94019400 36.92825300
 H   65.00466100 43.69321600 30.96904600
 C   61.55095800 41.23165900 42.88536700
 C   61.47672000 41.03755900 48.93100800
 C   62.83726100 43.46357400 42.88877900
 H   63.54120000 41.04752700 48.81953400
 C   61.54971600 45.85472300 42.93186000
 C   61.47451800 45.71940400 48.98539300
 C   62.83374100 48.15327600 42.91572600
 H   63.54082900 45.71683700 48.86635400
 H   64.90330000 43.47199700 42.83900200
 C   61.65199400 55.35778400 30.77440300
 C   61.53526300 55.29053100 36.89886300
 C   62.93948000 57.74886100 30.87029700
 H   63.60291600 55.29258700 36.95084200
 H   65.00479600 53.05656200 30.90881000
 C   61.55028400 55.13790700 42.93342400
 C   61.47364300 55.07453000 48.99921500
 C   62.83820700 57.52890100 42.89584500
 H   63.53983400 55.07738500 48.88217700
 H   64.90380200 52.83797900 42.86083900
 C   61.65044400 50.71463600 30.74795100
 C   61.53590100 50.61652600 36.88423600
 C   62.93670200 53.05841000 30.80558500
 H   65.00513400 48.37309700 30.90967600
 C   61.54745900 50.49626700 42.94091500
 C   61.47382000 50.39706800 48.99010200
 C   62.83393800 52.83903200 42.91315600
 H   64.90371500 48.15410200 42.86832600
 H   41.82255800 71.11445700 30.98798900
 H   44.45173300 71.01422900 37.01711300
 H   41.73554800 70.89149000 42.86096900
 H   44.38446500 70.80686400 48.86286500
 C   45.44316600 69.33759600 30.88593100
 C   45.49592500 69.23081400 36.96098600
 H   46.48389600 71.11994900 31.00128000
 C   48.07197100 69.22791800 36.98025600
 C   49.49582200 66.99486000 30.83664600
 C   49.49810500 66.91745000 36.92812200
 H   50.52530200 68.78594000 30.95825600
 C   52.13049100 66.87939900 36.96448500
 H   49.11095100 71.01227600 37.05424400
 C   45.35330900 69.11034600 42.91696200
 C   45.42495500 69.02399100 48.97241300
 H   46.39749200 70.89368100 42.87353300
 C   48.00254800 69.02020000 48.98459700
 C   49.40171100 66.76825600 42.94493600
 C   49.42860100 66.70940900 49.07125800
 H   50.43321400 68.56120600 42.90232200
 C   52.06219100 66.67170600 49.04673200
 H   49.04423800 70.80202400 48.88651900
 H   57.21975900 66.33016100 37.04285100
 H   57.15276700 66.11979600 48.95472500
 H   53.16633000 68.67009200 37.04201900
 H   53.09714800 68.46219600 48.95488400
 C   57.59630700 62.31815900 30.83448600
 C   57.53581900 62.27659900 36.92725100
 H   58.63085400 64.10592900 30.95630100
 C   60.24976000 62.19668900 36.97828800
 C   57.49923400 62.09463400 42.94177800
 C   57.46964300 62.06571100 49.07075900
 H   58.53488600 63.88535500 42.89828700
 C   60.18414100 61.98655400 48.98312900
 C   53.54579700 64.65584000 30.83501600
 C   53.51561900 64.59429200 36.92203300
 C   56.18752000 64.53744800 36.96454300
 C   53.45044500 64.43153500 42.94809200
 C   53.44782900 64.38548700 49.09547000
 C   56.12061200 64.32770900 49.04662000
 C   61.65279700 59.98220900 30.87937500
 C   61.53956800 59.96723100 36.95678700
 H   62.67434700 61.77611400 30.99414600
 H   63.60528000 59.95566200 37.01193400
 H   65.00362700 57.73739700 30.97583400
 H   61.27298800 63.99030700 37.05326000
 C   61.55255600 59.76119400 42.90644800
 C   61.47647300 59.75659200 48.96947300
 H   62.57391100 61.55809200 42.86210000
 H   63.54095900 59.74731700 48.85879000
 H   64.90408200 57.52042100 42.84069600
 H   61.20384400 63.78127600 48.88531600
 H   63.53731300 50.39728800 48.85506400
 H   36.29076300 34.67026300 48.83059800
 H   36.28924400 66.12775500 48.85878600
 H   27.24533700 50.49796400 42.86019800
 H   54.48269300 66.22239200 42.90245400
 H   63.60218900 50.61656900 36.93425700
 H   54.48179200 34.77187000 42.85238300
 H   36.36625000 34.89158100 36.89295500
 H   36.36879500 66.34146300 36.94260700
 H   54.57640100 66.44291800 30.97214900
 H   27.33199100 50.71580500 30.94925000
 H   54.57741900 34.98320100 30.94092400
Li   29.99520000 40.24356000 27.49560000
