CRYSTAL
PRIMVEC 
      94.48631565       0.00000000       0.00000000
       0.00000000      94.48631565       0.00000000
       0.00000000       0.00000000      94.48631565


CONVVEC 
      94.48631565       0.00000000       0.00000000
       0.00000000      94.48631565       0.00000000
       0.00000000       0.00000000      94.48631565
PRIMCOORD 
  641     1
 C   45.51609200 50.73536200 30.24432900
 C   45.44037800 50.54941700 36.20101300
 C   46.86925700 53.07554400 30.23557600
 C   48.14918700 50.54153400 36.19470700
 C   49.57482300 48.39141600 30.23111100
 C   49.50263800 48.20132900 36.19423600
 C   50.93537400 50.73651700 30.21142800
 C   52.21659400 48.19080800 36.24888100
 C   45.51431700 55.40882200 30.21124500
 C   45.43802500 55.24186400 36.26285400
 C   46.86395600 57.74865900 30.15123900
 C   48.15454600 55.24249900 36.24325600
 C   49.57881100 53.07639500 30.21102000
 C   49.50888900 52.87817600 36.18076200
 C   50.92471700 55.41384300 30.13849800
 C   52.22163200 52.87193000 36.25863600
 C   45.37656900 50.55396600 43.57497900
 C   45.44275200 50.45793700 49.52758100
 C   46.73303600 52.89954600 43.56062800
 C   48.14737600 50.47877200 49.55036400
 C   49.43118600 48.19566300 43.58598300
 C   49.51348800 48.14947800 49.62380100
 C   50.79600400 50.53842000 43.52584000
 C   52.21339500 48.16541500 49.73068000
 C   45.38334200 55.25944900 43.50857700
 C   45.40467000 55.14836200 49.39414800
 C   46.73409600 57.58953100 43.41543100
 C   48.11919100 55.17013800 49.50056200
 C   49.44471100 52.88377600 43.55623600
 C   49.48073800 52.83079200 49.55796300
 C   50.79757300 55.22885100 43.57532900
 C   52.17821500 52.84835600 49.65402700
 C   57.68430400 48.37468100 29.87450200
 C   57.58235500 48.16853400 36.73131300
 C   59.04991400 50.71095000 29.88179400
 C   60.29635900 48.16237300 37.04731400
 C   57.54447400 48.18000800 43.21835900
 C   57.58199300 48.19641900 50.16100900
 C   58.89723500 50.52446100 43.08398100
 C   60.31250100 48.21322100 50.38643400
 C   53.63313800 50.73214400 30.15034300
 C   53.56863800 50.52724700 36.35179400
 C   54.98412800 53.07525800 30.08713900
 C   56.26056300 50.52058400 36.60844600
 C   53.49563800 50.52620700 43.42399100
 C   53.54086900 50.51089400 49.75256000
 C   54.84766200 52.86340300 43.29572900
 C   56.23979000 50.52760500 49.96212400
 C   57.65761700 43.71078800 29.56934900
 C   57.60820000 43.49057000 36.57235000
 C   59.02085200 46.03434800 29.60612400
 C   60.33046200 43.50355000 36.81437200
 C   57.52736200 43.48946100 43.18787500
 C   57.62662500 43.51658200 50.32858800
 C   58.89140800 45.81822100 43.15275200
 C   60.33894200 43.54267900 50.51426200
 C   53.62973700 46.05833800 30.06914100
 C   53.56621700 45.82458600 36.29867400
 C   54.98080900 48.38115600 30.06322800
 C   56.26097000 45.83479900 36.52267500
 C   53.49650700 45.84378900 43.48859800
 C   53.57448800 45.82813400 49.89277700
 C   54.84624000 48.18398200 43.38488100
 C   56.26275100 45.84970700 50.10957200
 C   57.67240100 57.76727100 29.80711600
 C   57.61256900 57.54853900 36.83942400
 C   59.04265700 60.16038700 29.62233100
 C   60.33099800 57.52372300 37.07881800
 C   57.54685400 57.53787400 42.99550400
 C   57.56072900 57.55233700 49.91417500
 C   58.89820800 59.87808700 42.95580300
 C   60.30506200 57.55992600 49.98625000
 C   45.49145200 64.76362000 30.00749800
 C   45.45680800 64.58836300 36.57874700
 C   46.86938500 67.13154000 29.96330400
 C   48.13161300 64.59241500 36.82786800
 C   49.53676400 62.41220800 29.82158700
 C   49.49969100 62.24883500 36.73569600
 C   50.88836500 64.78687400 29.59780100
 C   52.20455400 62.25998800 36.78498400
 C   45.43113800 64.60121300 43.19638800
 C   45.32780600 64.48523300 50.25645000
 C   46.82150800 66.95379200 43.02259800
 C   48.02397300 64.52154400 50.20593500
 C   49.45234300 62.22422300 43.03773600
 C   49.40662000 62.19795000 49.94446700
 C   50.82973100 64.57623400 42.79662100
 C   52.11144100 62.22433300 49.96325500
 C   53.59615300 60.08272400 29.76409800
 C   53.56472400 59.91900500 36.65741900
 C   54.94978000 62.45025800 29.56605900
 C   56.28011500 59.89814800 36.80547100
 C   53.50322700 59.86585400 43.00444700
 C   53.48849100 59.88614200 49.85513200
 C   54.87779600 62.21436100 42.75426500
 C   56.19582700 59.89398300 49.95881600
 C   57.70365500 53.07002100 29.95779800
 C   57.58536800 52.86066900 36.79813100
 C   59.05160700 55.40881500 29.84531900
 C   60.30478300 52.85719300 37.12324300
 C   57.54092900 52.86164900 43.08634000
 C   57.56235000 52.87772400 50.02789000
 C   58.89044600 55.21532700 42.95396100
 C   60.29104100 52.89763700 50.27325000
 C   45.49913300 60.08661200 30.09657200
 C   45.46150500 59.91231400 36.47951600
 C   46.84454900 62.41733200 29.98106600
 C   48.15303700 59.91959600 36.52785400
 C   49.55688700 57.74983100 30.09024500
 C   49.50568400 57.58320300 36.36464600
 C   50.90302000 60.09163000 29.89840500
 C   52.22583900 57.58456500 36.41978400
 C   45.38609100 59.92877900 43.33275300
 C   45.37471400 59.84808900 49.63480600
 C   46.76168500 62.25474100 43.20085100
 C   48.06971600 59.85394800 49.69970300
 C   49.44592800 57.57467200 43.40783500
 C   49.45013100 57.51788100 49.59275400
 C   50.80415500 59.89906900 43.15633700
 C   52.15157800 57.53276100 49.68874400
 C   53.63387600 55.40821300 30.06827900
 C   53.57932400 55.23203500 36.38584000
 C   54.97503100 57.76282200 29.89825200
 C   56.26671900 55.20908900 36.65672500
 C   53.50845800 55.20689800 43.34983900
 C   53.51321700 55.20258800 49.71064800
 C   54.84910700 57.54157600 43.11137400
 C   56.21528800 55.20903100 49.87088600
 H   27.25474200 41.36849000 28.99130400
 H   28.20704800 39.43151700 37.09598200
 H   27.10068800 41.27147700 42.78838400
 H   28.37503900 39.16195000 50.74314800
 H   41.83513600 30.26214000 29.47901700
 C   42.87806100 32.04706600 29.52544600
 H   44.39738700 30.06290600 36.72262200
 H   41.62667000 30.09224400 42.92667300
 C   42.66579300 31.87978700 42.99314200
 H   44.59030100 29.97619700 49.69536000
 H   29.61265600 37.24121800 29.37423900
 C   30.65103100 39.02441900 29.44337600
 H   32.29356900 37.06233100 36.60867000
 H   33.73439700 34.85623500 29.55667700
 C   34.74341300 36.65982000 29.58936700
 H   29.38633300 37.23269500 43.54654700
 C   30.44870400 38.99877500 43.38511900
 H   32.47842700 36.88338000 50.97075400
 H   33.47085500 34.79878000 44.15459200
 C   34.50787300 36.56210500 43.86059200
 H   37.79447100 32.56902300 29.36799600
 C   38.81143300 34.37237700 29.39639600
 H   40.36121700 32.40701400 36.98077600
 H   37.56788200 32.40126200 43.37391000
 C   38.58019700 34.20212200 43.28092000
 H   40.51867000 32.29100300 50.37382700
 H   46.52136900 30.27610000 29.84546000
 H   46.31971900 30.09973600 43.05497400
 H   25.80639700 48.17592700 36.20218000
 C   27.87173800 48.19180800 36.26918500
 H   25.85143200 47.88809900 50.09252800
 C   27.91835300 47.92196100 50.07290200
 H   25.84055300 43.49064700 36.65636000
 H   27.28079100 46.12731300 29.04533100
 C   27.90702400 43.49777300 36.65597100
 H   25.95102900 43.16986100 50.26616500
 H   27.12338500 45.97039300 42.63068100
 C   28.01789400 43.20758500 50.28586100
 H   25.83206000 57.65817700 36.31932700
 H   27.30424300 60.05826500 28.86449700
 C   27.89812400 57.63707700 36.34839500
 H   25.74820300 57.28072500 49.77537500
 H   27.15939700 59.90827800 44.16497400
 C   27.81386800 57.29248000 49.82611700
 H   25.78361800 52.90854300 36.24696700
 H   27.31865600 55.36208400 28.85720400
 C   27.84787800 52.90574500 36.27775300
 H   25.79007700 52.57256500 49.97671800
 H   27.13795300 55.21312200 43.83139400
 C   27.85898200 52.59459700 49.96131500
 C   29.30864600 41.37156000 29.19776700
 C   29.23717400 41.21604300 36.93456700
 C   30.60238000 43.73480700 29.26876400
 C   31.90183400 41.15933700 36.90060800
 C   33.32891600 38.93834400 29.57232100
 C   33.31270400 38.86419900 36.78959800
 C   34.70922900 41.35204300 29.65436400
 C   35.98618900 38.84745000 36.86049000
 C   29.34308000 46.10006100 29.19949900
 C   29.17428300 45.84734900 36.51895100
 C   30.67681700 48.40585500 29.10469200
 C   31.91705600 45.85073100 36.59776900
 C   33.35265800 43.71669200 29.58274700
 C   33.27064800 43.51973700 36.74181900
 C   34.70881200 46.05398800 29.66841600
 C   35.96787100 43.53242100 36.69378200
 C   29.15790500 41.26922200 42.95560700
 C   29.37521300 40.96282500 50.58211500
 C   30.45999500 43.61095400 42.82571400
 C   32.06130300 40.94346800 50.61945100
 C   33.11248000 38.88982100 43.51638800
 C   33.48141800 38.68412400 50.80631300
 C   34.50224900 41.24022100 43.29927300
 C   36.13729300 38.68599800 50.80177900
 C   29.18729200 45.95898100 42.73318800
 C   29.24903500 45.59262500 50.15910700
 C   30.49277200 48.27127000 42.79286200
 C   31.98859500 45.62134900 50.10252000
 C   33.18303000 43.57923300 43.05388600
 C   33.37687900 43.32033500 50.29835700
 C   34.55120400 45.91159200 43.08605300
 C   36.08085000 43.35918400 50.19149900
 C   41.47083200 39.04157700 29.67498100
 C   41.40469400 38.84914900 36.83028800
 C   42.81058400 41.38219600 29.93710100
 C   44.10770600 38.83784400 36.71653300
 C   41.28329500 38.86287200 43.26900900
 C   41.53060100 38.74620100 50.23233900
 C   42.63700700 41.19054800 43.40039300
 C   44.20516700 38.75799700 49.94776800
 C   37.41227700 41.35874100 29.72813400
 C   37.34483700 41.20893500 36.79547900
 C   38.75800600 43.71559600 29.91432400
 C   40.03409600 41.17697100 36.71691900
 C   37.22041000 41.21863100 43.37712000
 C   37.46821700 41.06203400 50.42868500
 C   38.57795800 43.55367300 43.39535200
 C   40.15046900 41.06252200 50.16658200
 C   41.47560200 34.34027500 29.41846200
 C   41.40043000 34.19254300 36.93923200
 C   42.83550400 36.70312800 29.49978800
 C   44.07703700 34.13244000 36.78306600
 C   41.27153500 34.16203400 43.04851100
 C   41.54571700 34.08390800 50.28197300
 C   42.64256200 36.51388600 43.12573000
 C   44.20505100 34.04626500 49.92843600
 C   37.42641500 36.63036200 29.46865600
 C   37.36449000 36.54365800 36.78355100
 C   38.78646900 39.02007800 29.60579300
 C   40.04999500 36.47236000 36.91925600
 C   37.20964700 36.47160000 43.51387500
 C   37.52897100 36.41115200 50.65438400
 C   38.57759300 38.85814000 43.38979700
 C   40.19514600 36.36379400 50.54751100
 C   41.46127400 48.39442400 30.15015700
 C   41.35872400 48.20952700 36.32485700
 C   42.81445600 50.73602500 30.20712700
 C   44.08353200 48.20898200 36.25422100
 C   41.29226100 48.22810200 43.53143300
 C   41.41278900 48.07826000 49.61410900
 C   42.65470300 50.56456000 43.53391500
 C   44.11254600 48.10616900 49.57970400
 C   29.38078900 55.37852100 29.01893800
 C   29.14770600 55.29872200 36.34926700
 C   30.66061800 57.72971300 29.07469500
 C   31.91847900 55.28372800 36.40192000
 C   33.41125300 53.07266500 29.38215100
 C   33.25942800 52.92741300 36.38266700
 C   34.73774700 55.41095400 29.55333800
 C   35.97488400 52.91958700 36.43040600
 C   29.20164000 55.22269200 43.70122900
 C   29.11836900 54.92803000 49.82317700
 C   30.48848700 57.56393500 43.73959000
 C   31.86744300 54.97788600 49.79279600
 C   33.22801200 52.91609400 43.38401200
 C   33.24838400 52.65342200 49.78875500
 C   34.56561600 55.25212100 43.37171600
 C   35.95334400 52.69525100 49.68351400
 C   37.42149600 50.73870500 29.91011200
 C   37.31876900 50.57106300 36.43441000
 C   38.76301700 53.07245300 30.01104900
 C   40.00357000 50.56666800 36.36032600
 C   37.26269700 50.58015600 43.29003500
 C   37.33346900 50.37175700 49.65356100
 C   38.60795900 52.91778500 43.34531100
 C   40.03386100 50.40472400 49.57656600
 C   41.45395400 43.71937400 30.02695700
 C   41.38078000 43.51199800 36.50172900
 C   42.80570700 46.05640000 30.15717100
 C   44.08967800 43.50667500 36.41094800
 C   41.28164600 43.53824500 43.50840700
 C   41.46574900 43.40767400 49.85540600
 C   42.63705300 45.86792200 43.67650400
 C   44.15936600 43.42970100 49.73511800
 C   29.39241100 50.73604000 29.13427000
 C   29.13591400 50.53900900 36.30345300
 C   30.69120800 53.07840100 29.01809400
 C   31.90330300 50.54926900 36.35719600
 C   33.39831400 48.39717700 29.43875300
 C   33.26267600 48.20550800 36.50554100
 C   34.73269500 50.73786500 29.59740700
 C   35.96709200 48.21202800 36.50758600
 C   29.20029600 50.58956200 43.18713300
 C   29.17360600 50.28526400 50.04176600
 C   30.49558900 52.90901900 43.58113900
 C   31.92624700 50.31732300 49.93088900
 C   33.22470000 48.25082200 43.00217000
 C   33.30881600 47.99173000 49.93234200
 C   34.56064000 50.58354700 43.20759800
 C   36.01090600 48.01977200 49.78901200
 C   37.41358500 46.05023200 29.90477000
 C   37.29864700 45.88082000 36.55551000
 C   38.76791400 48.39425600 30.00712600
 C   40.01511600 45.87122100 36.44100000
 C   37.24313900 45.89442700 43.29659800
 C   37.38753900 45.70384300 49.87772600
 C   38.59923500 48.23508300 43.35981200
 C   40.08962700 45.72991900 49.76358500
 C   45.47431100 32.05608800 29.73928800
 C   45.44374000 31.83723800 36.59545000
 C   46.85861000 34.35110600 29.85381100
 C   48.02816500 31.82388700 36.25490600
 H   49.05444200 30.03426600 36.12681500
 H   50.54803300 32.60578600 30.01678700
 C   45.51015200 36.70348700 29.78553900
 C   45.43582400 36.48073700 36.63317800
 C   46.83458100 39.04574300 29.99743800
 C   48.10069600 36.46488700 36.29365800
 C   49.51497800 34.39599700 29.97750500
 C   49.43151800 34.10030900 36.10710100
 C   50.86710700 36.65301000 29.95963300
 C   52.12693900 34.12284100 36.03018200
 C   45.27561500 31.88386900 43.07397800
 C   45.61897600 31.76824800 49.73374200
 C   46.66625100 34.16245600 43.22798700
 C   48.26546700 31.77947700 49.66179300
 H   49.30410500 29.99488300 49.57902000
 H   50.36491000 32.39712900 43.39842600
 C   45.32603700 36.51062000 43.23403600
 C   45.57317100 36.42034100 49.85636000
 C   46.67519200 38.84813600 43.37508800
 C   48.26627100 36.43675600 49.79688500
 C   49.33923800 34.19396900 43.37503300
 C   49.67218500 34.07928200 49.78978300
 C   50.70611100 36.45817400 43.50440700
 C   52.31732600 34.13927400 50.04652000
 H   53.12416200 32.31124000 35.95881700
 H   53.36465200 32.35635000 50.06489700
 C   57.62655300 39.04909500 29.49093900
 C   57.66335900 38.76173000 36.34683900
 C   59.01260100 41.36322600 29.25069400
 C   60.32711500 38.85426900 36.53119300
 C   57.47439300 38.81498300 43.14498800
 C   57.67761600 38.81624700 50.53459900
 C   58.87870900 41.12025900 43.04114500
 C   60.35715700 38.91217300 50.57225600
 C   45.51232900 46.06020300 30.21647600
 C   45.43556000 45.85335100 36.28155300
 C   46.86831400 48.39472400 30.24547700
 C   48.15324400 45.83910000 36.23409700
 C   49.54817900 43.72947300 30.17164600
 C   49.49548200 43.49091400 36.25169500
 C   50.91470900 46.05934700 30.18631600
 C   52.21398300 43.47814200 36.25311500
 C   45.36171800 45.86943600 43.62078300
 C   45.48476100 45.77810400 49.62954300
 C   46.71703800 48.20152800 43.58963300
 C   48.18495800 45.79745600 49.64631800
 C   49.39595700 43.50494100 43.55091800
 C   49.55178200 43.46850300 49.75353000
 C   50.77459400 45.85458500 43.65316500
 C   52.24434900 43.48488800 49.90373700
 C   53.59674400 41.39190800 29.85010100
 C   53.55776900 41.12905800 36.27711000
 C   54.96822800 43.72158700 29.85220300
 C   56.27481500 41.14354600 36.36291100
 C   53.44769500 41.16769200 43.38750000
 C   53.59918600 41.15204100 50.14308100
 C   54.82818600 43.49880700 43.36457300
 C   56.30744100 41.17717400 50.35752100
 H   57.27523200 34.61600900 36.39285000
 H   58.62729000 37.24962100 29.21094100
 H   57.37659900 34.72963900 50.51457400
 H   58.48295400 37.01300700 43.02872200
 C   45.49277500 41.38561600 30.05748900
 C   45.45781700 41.16306700 36.49754700
 C   46.85504600 43.72264600 30.18586600
 C   48.13481000 41.14983400 36.35789200
 C   49.52166400 39.03946100 30.05328300
 C   49.47597400 38.80253600 36.28464100
 C   50.89381000 41.38042400 30.06934100
 C   52.18302100 38.77876600 36.24447500
 C   45.33041800 41.18425300 43.42943400
 C   45.53319000 41.09948200 49.78174300
 C   46.70093100 43.51697900 43.54139900
 C   48.22656200 41.11683300 49.77386300
 C   49.36526200 38.84035300 43.44433600
 C   49.59511100 38.78940000 49.87423800
 C   50.74270200 41.15826900 43.45664800
 C   52.27305100 38.79929500 50.10946200
 C   53.55574800 36.71775700 29.60939800
 C   53.53714600 36.37353700 36.16798200
 C   54.95299500 39.02377600 29.59443100
 C   56.24748000 36.40961900 36.39187600
 C   53.39705700 36.50494000 43.24047300
 C   53.65443100 36.42271000 50.26907900
 C   54.79867100 38.79926800 43.28265800
 C   56.32324400 36.50751500 50.47133200
 H   61.37567300 37.07041700 36.51362200
 H   62.68794300 39.61938100 28.97050600
 H   61.40321200 37.12995900 50.61465000
 H   62.55887600 39.38124300 42.76677600
 H   28.22235100 61.74427200 36.36622100
 H   28.08807500 61.37933400 49.94536900
 C   29.36794800 60.07758100 28.97054300
 C   29.24256600 59.94542700 36.39016900
 C   30.66660700 62.37863200 29.11183600
 C   31.93706900 59.99402300 36.46690900
 C   33.38278800 57.74320400 29.34919600
 C   33.29183700 57.61785600 36.48059800
 C   34.71555900 60.08496100 29.43670900
 C   35.99442300 57.60926600 36.51395800
 H   29.62583600 64.16327400 29.08079700
 H   32.32651100 64.08675400 36.59966400
 C   33.35235000 62.46542400 29.27369800
 C   33.34804600 62.28858000 36.51778800
 C   34.72851300 64.76202700 29.37911000
 C   36.02699300 62.31041900 36.67623400
 C   29.20870000 59.91979700 43.91169300
 C   29.13139800 59.59536600 49.92293900
 C   30.50981100 62.21892500 43.69580700
 C   31.80503700 59.68603100 50.02224700
 C   33.21155200 57.58025700 43.47390300
 C   33.19759900 57.32679400 49.86235700
 C   34.54605700 59.92128800 43.28873200
 C   35.89784600 57.36389000 49.86534000
 H   29.47904700 64.00714200 43.80657900
 H   32.13143800 63.77231400 50.38283300
 C   33.16817800 62.30358100 43.35510300
 C   33.17608300 61.99016000 50.28779000
 C   34.56354900 64.61785700 43.29651200
 C   35.81565100 62.04736700 50.40462700
 C   41.45874100 57.74822000 30.07461200
 C   41.39954300 57.58376300 36.41900800
 C   42.80362300 60.08729400 30.05735700
 C   44.09695500 57.58046000 36.38286600
 C   41.32327300 57.60521300 43.35044300
 C   41.31022700 57.45425000 49.51700000
 C   42.68769000 59.94450700 43.35241600
 C   44.02204500 57.49066200 49.34735400
 C   37.42640600 60.09147100 29.67113100
 C   37.36666800 59.92655200 36.54602800
 C   38.77495600 62.43496900 29.67272800
 C   40.05937700 59.92438700 36.44898700
 C   37.26268300 59.93768700 43.22998600
 C   37.23522600 59.71788000 50.05116500
 C   38.61906100 62.29266300 43.30861300
 C   39.92907200 59.78646300 49.81827200
 C   41.46334500 53.07333700 30.16273400
 C   41.36902200 52.90639900 36.29985000
 C   42.81109600 55.41009400 30.17782100
 C   44.08403400 52.90155900 36.14434100
 C   41.30143200 52.91357600 43.45566700
 C   41.35778600 52.76153400 49.50687500
 C   42.66238000 55.27535100 43.45221300
 C   44.06997900 52.78741600 49.47081800
 C   37.41914600 55.41640600 29.85909800
 C   37.32830100 55.24748800 36.46259900
 C   38.76531000 57.75072600 29.90414300
 C   40.03369900 55.24567400 36.41019000
 C   37.26655100 55.26775000 43.30176800
 C   37.27201300 55.04782200 49.67980700
 C   38.61116000 57.59957000 43.28773700
 C   39.98218600 55.08894500 49.55178500
 C   41.40471300 67.13630500 29.94016400
 C   41.45085000 66.89026600 36.21752200
 C   42.81866500 69.42975100 30.05003800
 C   44.10949200 66.92929800 36.45399900
 C   41.37214100 67.02845600 43.31416800
 C   41.25611200 66.76174500 50.54526400
 C   42.80060300 69.28603600 43.26675000
 C   43.96031400 66.81894000 50.62368800
 H   37.72379400 68.88477400 29.64770800
 H   40.42071300 68.68163400 36.13570700
 H   37.63258500 68.77393900 42.85056500
 H   40.21152700 68.49426700 50.99986800
 C   41.45133600 62.42394500 29.91643200
 C   41.43075600 62.24682700 36.33636400
 C   42.79438600 64.76800200 29.98548700
 C   44.11543800 62.24846100 36.45951300
 C   41.34386100 62.28809600 43.38007300
 C   41.28800300 62.12397200 49.96843400
 C   42.73095400 64.62887900 43.36627700
 C   43.99761100 62.15526600 49.93377500
 H   33.69000200 66.54859200 29.34322700
 H   33.51855300 66.40143200 43.31147200
 C   37.40345800 64.82128400 29.50847100
 C   37.40105800 64.58448300 36.44227600
 C   38.75867000 67.09391000 29.68073300
 C   40.08453500 64.62270900 36.15077400
 C   37.22558100 64.68048400 43.22096700
 C   37.20316500 64.39611500 50.38098400
 C   38.63833800 66.98891300 43.11080200
 C   39.92143400 64.46144700 50.34471000
 C   61.67482000 41.41704400 29.12311100
 C   61.62553200 41.15263000 36.78543500
 C   63.01440500 43.69009000 29.19197400
 H   63.68130100 41.15373700 36.97389000
 C   61.75220600 46.02932300 29.39570700
 C   61.60067000 45.84409400 36.99769200
 C   63.07115700 48.36630300 29.53018600
 H   63.64788700 45.84290700 37.25666500
 H   65.07742400 43.67640200 29.08461800
 C   61.54213000 41.17593700 42.87566200
 C   61.64343800 41.19812700 50.56296800
 C   62.89344300 43.45701600 42.91179600
 H   63.71197300 41.22700800 50.61630500
 C   61.63491600 45.82659900 42.99878500
 C   61.62756100 45.89658200 50.31315500
 C   62.93707400 48.17164200 43.00941900
 H   63.69431100 45.91662600 50.43751800
 H   64.95670100 43.44070500 42.80265500
 C   61.83325100 55.40602100 29.73356100
 C   61.61082700 55.16811300 37.13083400
 C   63.09776200 57.76470000 29.64114100
 H   63.66515300 55.15275900 37.37004300
 H   65.17836000 53.02578600 29.70620600
 C   61.61209700 55.20797700 42.89085600
 C   61.59471500 55.21323000 50.13491700
 C   62.88991400 57.56659600 42.98179400
 H   63.66203800 55.20934800 50.20274000
 H   64.99092600 52.88164500 42.93174700
 C   61.80040600 50.70332500 29.67903600
 C   61.59308500 50.50341000 36.98471900
 C   63.11162800 53.03888600 29.76210700
 H   65.13524800 48.35718400 29.41912100
 C   61.65218300 50.52432700 42.95715800
 C   61.59270300 50.55852900 50.21513600
 C   62.92323100 52.86722100 42.94531200
 H   65.00207600 48.16340600 42.93207700
 H   41.78687200 71.22016200 30.08006800
 H   44.44891200 71.00050900 36.50679500
 H   41.79109800 71.08964300 43.27299200
 H   44.27399300 70.87429800 50.92144800
 C   45.46785700 69.42157100 30.06086300
 C   45.49357300 69.21951200 36.61261100
 H   46.50669300 71.20733900 30.10882800
 C   48.08228900 69.23128400 36.88466500
 C   49.54570900 67.07285900 29.75885200
 C   49.49004200 66.94681000 36.99144100
 H   50.58725700 68.85902000 29.71736100
 C   52.17319500 66.91376600 37.01306200
 H   49.11354200 71.02101700 36.98980500
 C   45.44858500 69.25837700 43.09477300
 C   45.33034300 69.10602800 50.73484000
 H   46.49574500 71.03519400 43.02280600
 C   47.96361200 69.15223500 50.59701000
 C   49.48540700 66.87383400 42.88348400
 C   49.37884200 66.89412400 50.40770800
 H   50.52894700 68.64871200 42.70470900
 C   52.06115800 66.87941400 50.30067200
 H   48.97380700 70.95295800 50.67691500
 H   57.29702000 66.35834000 37.05907300
 H   57.16371000 66.38521500 50.25027600
 H   53.18996300 68.71164200 37.08913300
 H   53.06880900 68.67964400 50.42237900
 C   57.62056300 62.44118300 29.76561100
 C   57.63680500 62.27260800 36.98486200
 H   58.62980700 64.24638000 29.69358400
 C   60.32027100 62.17189900 37.12952200
 C   57.53372200 62.16546900 42.84975500
 C   57.56243400 62.29830000 50.10903900
 H   58.56885800 63.95289800 42.74006200
 C   60.24563300 62.22754300 50.08547200
 C   53.57147300 64.72884900 29.67806600
 C   53.57642000 64.64181200 36.96925200
 C   56.25695400 64.57762000 36.94894300
 C   53.49766700 64.51573100 42.89430700
 C   53.47088300 64.61477900 50.18964800
 C   56.14556900 64.58920300 50.16006700
 C   61.73169800 60.10047700 29.61194300
 C   61.61661700 59.87267200 37.22707400
 H   62.75785500 61.89081400 29.53456700
 H   63.67259900 59.85119200 37.41364500
 H   65.16175800 57.78135400 29.61313800
 H   61.36234100 63.95042800 37.25728700
 C   61.58009700 59.81381400 43.01032100
 C   61.58161300 59.92009600 50.00751600
 H   62.59782900 61.61257000 43.04140400
 H   63.64675300 59.92413400 49.98683800
 H   64.95906600 57.55686000 43.00710600
 H   61.27490700 64.01871500 50.11863700
 H   63.65943700 50.57098300 50.33298500
 H   36.50501600 34.61784300 50.78228600
 H   36.17826400 66.14454200 50.82289500
 H   27.13234500 50.58412900 43.21435600
 H   54.53211300 66.29697500 42.70740400
 H   63.64742400 50.49538900 37.23867100
 H   54.43022100 34.71095400 43.23146600
 H   36.32836200 34.75148500 36.59764700
 H   36.37546200 66.38126200 36.46801500
 H   54.60421700 66.52178400 29.61331600
 H   27.32931500 50.73605800 28.97150400
 H   54.54899600 34.90606500 29.36622200
Li   32.13063300 41.19273800 26.18725400
Li   30.67149800 47.96110200 32.96847000
Li   59.00216800 59.83551200 53.30178800
Li   36.14774200 38.74142800 33.03880000
Li   60.46862600 57.74129700 26.43863000
Li   42.51975900 36.27084200 33.36993700
Li   30.38151300 57.20203700 53.17625800
Li   35.72329700 62.17048700 46.64299000
Li   47.03825700 33.93582300 53.08882100
Li   30.35400200 48.01426200 46.61332200
Li   51.92502800 39.11527000 26.54529000
Li   35.77448000 39.01130600 46.94902700
Li   44.13011300 67.21423500 26.70372700
Li   35.95589200 62.73829700 32.87753500
Li   30.43934200 53.16004200 32.87678800
Li   40.36588600 36.14589600 46.67514200
Li   55.30844200 38.57516700 46.96881200
Li   60.58187700 48.21682800 46.52285300
Li   44.57207800 67.22418400 46.70088900
Li   50.64358800 65.03129200 46.68688100
Li   50.63240100 65.06030000 33.46102500
Li   40.16789500 64.68633300 39.92457500
Li   60.44438100 53.30101900 46.41511500
Li   50.63761600 36.04162400 39.63703600
Li   30.79160400 42.28647700 46.78247500
Li   60.76986100 47.98366900 33.15137800
Li   55.11033700 62.55980600 33.42195400
Li   60.69194200 53.16206500 33.28799700
Li   60.51900300 43.05950800 46.54997500
Li   30.38209500 52.92137600 39.75683600
Li   55.17254900 62.46970800 46.59458900
Li   55.09871900 38.63817900 39.60754300
Li   31.46192600 60.02844900 32.61764100
Li   44.06318200 52.88265300 40.06593800
Li   59.43574300 41.38588700 33.13142800
Li   50.83596000 45.88613200 39.71255400
Li   34.78147000 36.68302800 39.98296700
Li   42.80462000 45.95576100 39.79985000
Li   59.57246000 59.87415300 33.53175100
Li   50.82903300 55.09620400 39.71101800
Li   38.91247100 62.23724300 53.67038100
Li   39.03152300 66.24979900 46.93031200
Li   30.60222700 42.37251100 33.14199700
Li   43.74271800 56.77806400 53.24703700
Li   31.24142100 59.87488600 40.22475300
Li   41.15914300 59.28968900 57.31401700
Li   56.21401200 36.82505700 32.63782300
Li   38.49384000 61.99008000 57.49080000
Li   61.74012000 58.99056000 46.24260000
