CRYSTAL
PRIMVEC 
      94.48631565       0.00000000       0.00000000
       0.00000000      94.48631565       0.00000000
       0.00000000       0.00000000      94.48631565


CONVVEC 
      94.48631565       0.00000000       0.00000000
       0.00000000      94.48631565       0.00000000
       0.00000000       0.00000000      94.48631565
PRIMCOORD 
  642     1
 C   45.50858100 50.73477900 30.21765600
 C   45.45332400 50.53727400 36.19660800
 C   46.86398800 53.07497900 30.20908800
 C   48.16156500 50.53163800 36.20531100
 C   49.56997600 48.38930500 30.19523400
 C   49.51806900 48.19336400 36.20619100
 C   50.93086100 50.73665300 30.18630900
 C   52.23036100 48.18916400 36.27162400
 C   45.51254500 55.41094200 30.17416600
 C   45.44573000 55.23155200 36.23707300
 C   46.86267000 57.75229300 30.11207100
 C   48.16392000 55.23242700 36.22918900
 C   49.57360800 53.07617100 30.18899000
 C   49.51936900 52.86748100 36.19387800
 C   50.92123400 55.41387800 30.11125800
 C   52.22917700 52.86561300 36.28549200
 C   45.38645000 50.56661500 43.57270400
 C   45.47156800 50.46286000 49.52934500
 C   46.74059800 52.91018100 43.55461600
 C   48.17072900 50.48291000 49.55897500
 C   49.43582100 48.20357500 43.60653400
 C   49.53517800 48.15023700 49.67012900
 C   50.80551600 50.54832900 43.55431900
 C   52.23354400 48.17029200 49.78874700
 C   45.39393600 55.27128700 43.49307500
 C   45.43019600 55.14874000 49.29873700
 C   46.74537100 57.60142200 43.40613800
 C   48.14116900 55.17567000 49.42931800
 C   49.45681500 52.89650700 43.56675600
 C   49.50233600 52.83891100 49.54320100
 C   50.81198700 55.23945600 43.58271700
 C   52.19986500 52.85754300 49.68475100
 C   57.68040200 48.37945400 29.84637700
 C   57.59513300 48.17463600 36.74329000
 C   59.04430000 50.71663800 29.87109900
 C   60.31109800 48.17270500 37.04790000
 C   57.55461700 48.17917300 43.24340900
 C   57.59514400 48.19272700 50.21110900
 C   58.91334800 50.52161100 43.10500700
 C   60.32191500 48.20743000 50.41847600
 C   53.62862100 50.73512800 30.12216700
 C   53.57862100 50.52486300 36.38145300
 C   54.98041700 53.07856600 30.06249100
 C   56.27008700 50.52399200 36.62949400
 C   53.50229100 50.53348400 43.45365000
 C   53.56146900 50.51305600 49.80643800
 C   54.86464600 52.87679800 43.31896700
 C   56.25626200 50.52691800 50.03497900
 C   57.65498500 43.71645300 29.50909600
 C   57.62970600 43.49789800 36.54957900
 C   59.01888400 46.04129700 29.57443800
 C   60.35198300 43.51456300 36.78641700
 C   57.51475700 43.48185100 43.23566600
 C   57.63203900 43.51152900 50.38760900
 C   58.88950900 45.80923200 43.18352700
 C   60.34318300 43.52941500 50.56092700
 C   53.62915400 46.05551200 30.00692900
 C   53.58278900 45.82425700 36.30512300
 C   54.97678400 48.38274700 30.02237700
 C   56.27876100 45.83999900 36.52509900
 C   53.49870300 45.84902000 43.52655400
 C   53.58600400 45.82739600 49.95950800
 C   54.85124300 48.18369700 43.42371000
 C   56.27040200 45.84685800 50.16498800
 C   57.66658300 57.76822100 29.76223300
 C   57.61791400 57.54972800 36.80614800
 C   59.03505100 60.16033400 29.56419200
 C   60.33676100 57.52801700 37.02192100
 C   57.56089400 57.56424700 43.01539700
 C   57.56254800 57.56653000 50.10696500
 C   58.90356000 59.92699500 42.79418900
 C   60.30993800 57.55564600 50.34866900
 C   45.49014900 64.76865000 29.96822000
 C   45.46214500 64.58292400 36.55731600
 C   46.87054200 67.13589400 29.92889000
 C   48.14211500 64.58543700 36.80883800
 C   49.53573900 62.41675700 29.78365700
 C   49.50476300 62.24086900 36.70380700
 C   50.88694800 64.79058800 29.56083300
 C   52.20730300 62.25528100 36.74964900
 C   45.42670900 64.61336000 43.17058300
 C   45.32590000 64.47617000 50.16696000
 C   46.81211500 66.97192800 42.99334600
 C   48.01662700 64.52378100 50.13968200
 C   49.45049000 62.24040200 43.02907500
 C   49.39737200 62.20785400 49.88578800
 C   50.83565200 64.59379100 42.78503000
 C   52.10652400 62.24728900 49.95690700
 C   53.59395000 60.08458700 29.72367300
 C   53.56790300 59.91424300 36.62592100
 C   54.94474000 62.45178100 29.52095800
 C   56.28071900 59.89968800 36.76982200
 C   53.50691100 59.89226200 43.01022300
 C   53.48704700 59.91083600 49.93800500
 C   54.87553200 62.24791800 42.75269700
 C   56.18166300 59.92410500 50.12605000
 C   57.69832500 53.07427300 29.93574900
 C   57.59401800 52.86263200 36.80659300
 C   59.04537100 55.41133100 29.81369600
 C   60.31185300 52.86310700 37.12334200
 C   57.56318100 52.87433200 43.14825100
 C   57.57810500 52.87807900 50.13775200
 C   58.90907700 55.23076200 43.05191900
 C   60.30105400 52.87970100 50.33894000
 C   45.49714200 60.09163900 30.05003200
 C   45.46881800 59.90741400 36.43653500
 C   46.84275900 62.42256400 29.93976500
 C   48.16036800 59.91293100 36.49158000
 C   49.55631000 57.75215700 30.05578800
 C   49.51369400 57.57491200 36.34047900
 C   50.90184700 60.09476800 29.86054500
 C   52.23272300 57.57713300 36.40651500
 C   45.39128800 59.94104800 43.31886300
 C   45.38647800 59.84845600 49.53203700
 C   46.76202600 62.27025600 43.18939100
 C   48.07252500 59.86432000 49.60937200
 C   49.45365800 57.58805300 43.41112700
 C   49.46241900 57.52773800 49.54166400
 C   50.81593000 59.91710900 43.14855300
 C   52.15795700 57.54483000 49.71996800
 C   53.62946400 55.41052500 30.04001800
 C   53.58631000 55.22480600 36.39731400
 C   54.97098300 57.76393000 29.86072500
 C   56.27322600 55.20805100 36.65769700
 C   53.53077800 55.22353100 43.38139300
 C   53.52713900 55.21437400 49.77239100
 C   54.86722400 57.56998900 43.16433700
 C   56.23475000 55.21901200 49.98875900
 H   27.23807600 41.38395000 29.02086100
 H   28.21358900 39.43318100 37.04673700
 H   27.08588200 41.28473400 42.82666400
 H   28.38692200 39.16403800 50.75961100
 H   41.82030300 30.27122500 29.49833800
 C   42.84663600 32.05661300 29.53337800
 H   44.40938000 30.05812700 36.70092600
 H   41.60908300 30.09971600 42.93707200
 C   42.63613700 31.88991400 43.01316500
 H   44.59717000 29.97519300 49.71630800
 H   29.58896700 37.25846800 29.39684200
 C   30.63088500 39.04480300 29.44746600
 H   32.30029600 37.06299500 36.63490700
 H   33.70981700 34.87046100 29.57710600
 C   34.72241200 36.67237700 29.60010700
 H   29.36554500 37.24835400 43.60458300
 C   30.42598100 39.01817100 43.45961500
 H   32.48759200 36.88513800 51.01787900
 H   33.45392700 34.80905600 44.21689800
 C   34.48661600 36.57862100 43.96166600
 H   37.77587100 32.57863100 29.37705700
 C   38.78552900 34.37961200 29.40073300
 H   40.37775100 32.40262700 36.98144700
 H   37.55277700 32.40834800 43.41968900
 C   38.55586800 34.21312800 43.34751400
 H   40.52545800 32.28957500 50.40831000
 H   46.50064000 30.27799000 29.84403700
 H   46.30020900 30.10398100 43.05060300
 H   25.81339700 48.17799300 36.17365100
 C   27.88216200 48.19190200 36.21956500
 H   25.86162000 47.88362600 50.07641800
 C   27.93240500 47.91428100 50.06530400
 H   25.84765200 43.49008600 36.60375400
 H   27.27200500 46.14110200 29.00987800
 C   27.91520900 43.49651500 36.60031000
 H   25.96529200 43.16624700 50.25216700
 H   27.11584400 45.98743700 42.62662700
 C   28.03678400 43.20278500 50.28477200
 H   25.84141600 57.65756000 36.29678900
 H   27.30816700 60.07034900 28.77760000
 C   27.91206700 57.63510600 36.32796900
 H   25.76103100 57.27774500 49.84336500
 H   27.15655900 59.91150300 44.12582000
 C   27.83806500 57.28733300 49.91370200
 H   25.79013000 52.91192500 36.24636400
 H   27.31744700 55.37412200 28.79990300
 C   27.85937500 52.90644300 36.26205300
 H   25.79969700 52.56931700 49.99552700
 H   27.13993900 55.21986800 43.85326800
 C   27.87488800 52.58704400 49.99718800
 C   29.28984500 41.39167600 29.21850700
 C   29.24898400 41.21566800 36.87981600
 C   30.58692800 43.75150900 29.23917800
 C   31.91392300 41.15759300 36.86889700
 C   33.30907900 38.95312400 29.57006200
 C   33.33108400 38.86254000 36.79773400
 C   34.69374400 41.36244900 29.63624200
 C   36.00627900 38.84164500 36.85983100
 C   29.33189300 46.11851000 29.15381400
 C   29.18143100 45.84338100 36.46269800
 C   30.66828100 48.42123500 29.04846300
 C   31.92389700 45.84394200 36.54194300
 C   33.33861200 43.72820800 29.54352700
 C   33.28375800 43.51528900 36.70737500
 C   34.69688700 46.06504800 29.61635400
 C   35.98149100 43.52344500 36.66055000
 C   29.13906700 41.28988300 43.00572000
 C   29.39510500 40.96303100 50.60724500
 C   30.44310100 43.62845100 42.85646800
 C   32.07933300 40.94429200 50.67110800
 C   33.08938400 38.90719900 43.60665900
 C   33.49821900 38.68466900 50.87882100
 C   34.48325600 41.25397400 43.37015600
 C   36.15209400 38.68660200 50.88104400
 C   29.17690300 45.97756200 42.73153000
 C   29.26530300 45.58734400 50.16354500
 C   30.48757900 48.28513800 42.79495800
 C   32.00426200 45.61347500 50.13005800
 C   33.16731500 43.59182800 43.09089800
 C   33.39655200 43.31718700 50.34819900
 C   34.54215900 45.91949900 43.11038000
 C   36.10138600 43.35658100 50.25536400
 C   41.45589000 39.04631000 29.65983700
 C   41.41890600 38.84226100 36.80077100
 C   42.80122800 41.38260400 29.91064000
 C   44.12458900 38.82960900 36.68190300
 C   41.26362400 38.87116900 43.31535500
 C   41.54422500 38.74446400 50.30040700
 C   42.62635800 41.19835100 43.43635300
 C   44.21858900 38.75681600 50.00922100
 C   37.39843800 41.36371700 29.70972700
 C   37.36171900 41.20089400 36.77107700
 C   38.74609900 43.71805100 29.88498300
 C   40.04980100 41.16830900 36.68778800
 C   37.20416500 41.23019300 43.44638500
 C   37.48767300 41.05941900 50.50311400
 C   38.56907000 43.56078700 43.43821700
 C   40.16836300 41.06271800 50.23856300
 C   41.45242200 34.34832300 29.41589700
 C   41.41806600 34.18933600 36.93506300
 C   42.81558100 36.70679400 29.48229400
 C   44.09531900 34.12551300 36.76910200
 C   41.24567000 34.17169600 43.09078900
 C   41.55405500 34.08126400 50.33685600
 C   42.61813000 36.52216700 43.16245500
 C   44.21295700 34.04341400 49.97696700
 C   37.40400700 36.64095000 29.46993800
 C   37.37936000 36.53770500 36.80195500
 C   38.77003700 39.02409100 29.59557000
 C   40.06598400 36.46494300 36.91504000
 C   37.18803900 36.48245900 43.59953000
 C   37.54266100 36.41024800 50.73291600
 C   38.55812100 38.86684400 43.45641800
 C   40.20689700 36.36297700 50.61558500
 C   41.45327200 48.39413800 30.11516400
 C   41.37390000 48.19531700 36.30173300
 C   42.80658000 50.73557700 30.17029100
 C   44.09942500 48.19568100 36.24361100
 C   41.29516500 48.23596100 43.54001800
 C   41.43508500 48.07850100 49.65247700
 C   42.66321500 50.57298500 43.53360900
 C   44.13555900 48.11163600 49.61200700
 C   29.37867800 55.39314400 28.94607300
 C   29.16253000 55.29711900 36.32697500
 C   30.66188000 57.74333600 28.99325100
 C   31.93242400 55.28012100 36.37600400
 C   33.40665700 53.08527000 29.31415500
 C   33.27136900 52.92136800 36.35131200
 C   34.73555000 55.42178700 29.47873000
 C   35.98608600 52.91048000 36.39567200
 C   29.20326200 55.23024500 43.72285700
 C   29.13829500 54.92067200 49.88943600
 C   30.48922000 57.56967500 43.75049300
 C   31.88451500 54.97204800 49.83764600
 C   33.22817800 52.92319400 43.40605000
 C   33.26168200 52.64767400 49.82234500
 C   34.57206200 55.25761800 43.41122400
 C   35.96699500 52.68213200 49.68678700
 C   37.41424700 50.74518900 29.85045100
 C   37.32724700 50.55850300 36.39293600
 C   38.75707800 53.07932400 29.94550000
 C   40.01211000 50.55219400 36.33350400
 C   37.26613100 50.58745300 43.30783400
 C   37.35359300 50.36704900 49.68173200
 C   38.61753700 52.92346900 43.36329900
 C   40.05747300 50.40519700 49.59648000
 C   41.44430200 43.72008500 29.99849700
 C   41.39592000 43.50055500 36.47500900
 C   42.79585000 46.05546300 30.12588100
 C   44.10457500 43.49511700 36.38679400
 C   41.27659900 43.54679300 43.54244900
 C   41.48769800 43.40679400 49.92342300
 C   42.63947600 45.87478100 43.68962800
 C   44.18225200 43.42954500 49.79762200
 C   29.38671000 50.75278300 29.07790200
 C   29.14710600 50.53845200 36.26795900
 C   30.68749700 53.09376200 28.95676300
 C   31.91473300 50.54549000 36.31555800
 C   33.38902500 48.40977900 29.37778500
 C   33.27167900 48.19683200 36.44618300
 C   34.72462000 50.74826900 29.53174900
 C   35.97536900 48.19792200 36.45231000
 C   29.19623600 50.60233200 43.18903700
 C   29.18896400 50.27854500 50.05888500
 C   30.49315500 52.91877100 43.59342700
 C   31.94230400 50.31079400 49.96067100
 C   33.21936300 48.26111500 43.01291100
 C   33.32501400 47.98666800 49.96492500
 C   34.55995500 50.59191700 43.22322600
 C   36.02807100 48.01597600 49.83663800
 C   37.40286700 46.05504300 29.86285900
 C   37.31266500 45.86870600 36.51001700
 C   38.75979100 48.39852900 29.96132300
 C   40.03019500 45.85920400 36.40944500
 C   37.23558300 45.90102500 43.32809200
 C   37.40596100 45.70044400 49.93825500
 C   38.59999000 48.24042700 43.37812500
 C   40.11034500 45.72933000 49.82465400
 C   45.46103200 32.05934700 29.72388800
 C   45.47356000 31.83219300 36.58277800
 C   46.84398500 34.35145600 29.79363300
 C   48.05256600 31.81576200 36.27308100
 H   49.06995500 30.02282000 36.14722000
 H   50.54308400 32.59599300 29.91510300
 C   45.49977200 36.70168000 29.73896500
 C   45.45475900 36.47467200 36.60291500
 C   46.82898400 39.04185000 29.93573000
 C   48.12372800 36.45625600 36.27630400
 C   49.50834500 34.38788500 29.85795900
 C   49.46202700 34.09062000 36.14105900
 C   50.85986400 36.64718200 29.82493400
 C   52.15871300 34.11495800 36.12825600
 C   45.24902200 31.88880200 43.08322500
 C   45.62425600 31.76584100 49.77065800
 C   46.63987500 34.16721300 43.24992000
 C   48.27422400 31.77486700 49.69359200
 H   49.31059500 29.99319800 49.59494300
 H   50.34603900 32.39571400 43.42084900
 C   45.30664400 36.51963400 43.26267700
 C   45.58107200 36.41717200 49.91015100
 C   46.66180400 38.85722200 43.40668700
 C   48.27636100 36.43646500 49.84931800
 C   49.31770900 34.19758700 43.40827700
 C   49.67799800 34.07488900 49.83294400
 C   50.68822100 36.46250800 43.55117400
 C   52.32777600 34.13296800 50.09930400
 H   53.15229400 32.30697500 36.07996600
 H   53.37069900 32.34971100 50.09446400
 C   57.61928900 39.05345600 29.32883700
 C   57.68450600 38.76918100 36.37492700
 C   59.00993800 41.37738100 29.16434100
 C   60.34893600 38.86469700 36.55531500
 C   57.45689300 38.81170200 43.20929100
 C   57.68437800 38.81091100 50.61203000
 C   58.85858900 41.11259000 43.09341900
 C   60.35824400 38.89692600 50.64625500
 C   45.50460400 46.05829700 30.18042300
 C   45.45268200 45.84013400 36.26976100
 C   46.86179400 48.39363400 30.21723400
 C   48.17130400 45.82875200 36.22634100
 C   49.54797700 43.72307800 30.10579500
 C   49.51592900 43.48025500 36.23018100
 C   50.91403500 46.05659200 30.12569300
 C   52.23675000 43.47427900 36.22466600
 C   45.36608500 45.87921900 43.63286300
 C   45.50624200 45.78077100 49.68001200
 C   46.72489500 48.21201200 43.59809100
 C   48.20650500 45.79742900 49.70240100
 C   49.39902600 43.51437900 43.57217400
 C   49.57171500 43.46791200 49.81690900
 C   50.77551300 45.86327000 43.67625800
 C   52.25896200 43.48174200 49.97208400
 C   53.59252800 41.39139800 29.74692000
 C   53.58198300 41.12940200 36.22438300
 C   54.96521000 43.72214100 29.77432400
 C   56.29891500 41.15097500 36.32919200
 C   53.44140200 41.16884100 43.43899000
 C   53.61046800 41.15220200 50.21522300
 C   54.82167700 43.49787200 43.41255400
 C   56.31435000 41.16981800 50.42982700
 H   57.28583100 34.62862600 36.63738600
 H   58.61906600 37.26831700 28.99760000
 H   57.38043200 34.72056700 50.56211300
 H   58.47092200 37.01361500 43.08082100
 C   45.48851300 41.38172600 30.01060900
 C   45.47460600 41.15285700 36.45819900
 C   46.85181600 43.72009700 30.13441400
 C   48.15422200 41.13801300 36.31991000
 C   49.51950800 39.03194700 29.97113000
 C   49.49893800 38.79344200 36.24882500
 C   50.89252000 41.37488500 29.98888800
 C   52.20724300 38.77733500 36.20984600
 C   45.32236600 41.19624600 43.45750100
 C   45.55283000 41.09623600 49.84414400
 C   46.70221300 43.52849800 43.56050400
 C   48.24550900 41.11829800 49.83571200
 C   49.35634800 38.85072300 43.48614700
 C   49.60780400 38.79009100 49.93620600
 C   50.74011600 41.16632000 43.49767600
 C   52.28518100 38.79853300 50.17979900
 C   53.54511900 36.72274300 29.42836400
 C   53.56113800 36.37135000 36.22060500
 C   54.94420800 39.03133900 29.44166000
 C   56.27112800 36.41634300 36.45882000
 C   53.38391900 36.51049200 43.30712000
 C   53.66181700 36.41770100 50.33872200
 C   54.78501700 38.80150700 43.33963600
 C   56.33319400 36.49808800 50.54894900
 H   61.39159900 37.08039200 36.56451600
 H   62.68973900 39.63378100 28.92131600
 H   61.40826000 37.12548200 50.66917400
 H   62.54661400 39.37963600 42.79587700
 H   28.22766700 61.74165600 36.39477400
 H   28.09950700 61.37538000 50.01234100
 C   29.37221200 60.09083200 28.86863400
 C   29.25370600 59.94154200 36.38269800
 C   30.67153500 62.39158100 29.00883100
 C   31.94585000 59.99079500 36.42077200
 C   33.38184700 57.75286400 29.27524300
 C   33.30446800 57.61531400 36.43961800
 C   34.71568600 60.09289900 29.36272300
 C   36.00708100 57.60474700 36.46777700
 H   29.63123000 64.17360500 28.99330900
 H   32.33141200 64.08743300 36.53661500
 C   33.35529000 62.47328700 29.19143100
 C   33.35851300 62.28811000 36.44526300
 C   34.73275900 64.77002600 29.30146900
 C   36.03913600 62.31087600 36.60429200
 C   29.20770600 59.92568700 43.88479600
 C   29.15676500 59.58887900 49.99580800
 C   30.50447400 62.22174400 43.68408200
 C   31.83270900 59.67443000 50.04647000
 C   33.21538100 57.58504100 43.51372500
 C   33.21835600 57.31525300 49.86756900
 C   34.55130700 59.92716900 43.32426600
 C   35.91430300 57.33363100 49.81129800
 H   29.47219700 64.00793500 43.78937200
 H   32.16164100 63.76349600 50.43174700
 C   33.16615100 62.31038300 43.36914700
 C   33.20897400 61.96851800 50.32295000
 C   34.55938900 64.62956200 43.29356100
 C   35.84600900 62.00006000 50.44225000
 C   41.45616100 57.75588900 30.01035700
 C   41.40896400 57.58017800 36.37409100
 C   42.80097700 60.09541500 29.99932200
 C   44.10600700 57.57418300 36.34184200
 C   41.33734900 57.61661500 43.34902100
 C   41.34125700 57.43493200 49.43093700
 C   42.69618100 59.95684900 43.34037500
 C   44.04415600 57.48801000 49.28003000
 C   37.42496400 60.09814300 29.59561500
 C   37.37861600 59.92438900 36.49010300
 C   38.77470600 62.43997300 29.60385400
 C   40.06932700 59.92106300 36.39526900
 C   37.27205200 59.94222100 43.24861300
 C   37.25576200 59.67720400 50.01416800
 C   38.62594100 62.29941600 43.29194000
 C   39.95673000 59.75110400 49.77023600
 C   41.45876300 53.07578200 30.11040600
 C   41.37492500 52.89480000 36.27549700
 C   42.80765100 55.41529200 30.12692300
 C   44.09216800 52.88941900 36.12859800
 C   41.31444900 52.92272800 43.45813600
 C   41.38534500 52.75772900 49.48250300
 C   42.67454000 55.28595100 43.44234000
 C   44.09866700 52.79223400 49.43003900
 C   37.41636400 55.42524200 29.78260500
 C   37.33927300 55.23861800 36.42759400
 C   38.76370200 57.75981400 29.82837000
 C   40.04375400 55.23964900 36.37399700
 C   37.27589000 55.27330900 43.33317100
 C   37.29352600 55.02786300 49.62325200
 C   38.62542900 57.60667600 43.30797200
 C   40.00587700 55.07710900 49.47034800
 C   41.40650900 67.14126900 29.90393800
 C   41.45979900 66.89068400 36.20547800
 C   42.82102500 69.43582800 30.02275200
 C   44.11960800 66.92352300 36.45177000
 C   41.36884100 67.03185000 43.24249900
 C   41.25816900 66.70414600 50.52001100
 C   42.78998300 69.29025600 43.19757000
 C   43.95566300 66.78649900 50.57498400
 H   37.72555700 68.89183300 29.62726700
 H   40.42817300 68.68346100 36.14553200
 H   37.62148200 68.77942700 42.81715400
 H   40.20813500 68.44920100 50.96650300
 C   41.44831200 62.43002800 29.85829000
 C   41.44064300 62.24321300 36.28524100
 C   42.79324000 64.77171600 29.94076600
 C   44.12471000 62.24257500 36.41919000
 C   41.35240300 62.29789400 43.35694100
 C   41.31661300 62.07193600 50.01860500
 C   42.72818600 64.63738500 43.32050700
 C   44.01459000 62.14093700 49.85578800
 H   33.69330100 66.55568100 29.29083300
 H   33.51231500 66.40985300 43.32522200
 C   37.40719300 64.82759800 29.44458700
 C   37.41513800 64.58607200 36.35831800
 C   38.76089900 67.10020600 29.63713200
 C   40.09809200 64.61755400 36.10306800
 C   37.22455400 64.68809600 43.18571800
 C   37.25185800 64.31848800 50.50109000
 C   38.63689300 66.99554400 43.04134600
 C   39.94814900 64.38805500 50.45871500
 C   61.67296500 41.43351600 29.06164200
 C   61.65146500 41.16594500 36.75976600
 C   63.01503000 43.70546400 29.17279800
 H   63.70146000 41.16763400 36.92913200
 C   61.75063300 46.04031300 29.38658300
 C   61.62047300 45.85543800 36.97528900
 C   63.06679900 48.37761700 29.54545800
 H   63.66713200 45.85496500 37.22941800
 H   65.07817900 43.69074300 29.08309400
 C   61.51835700 41.16845400 42.91663800
 C   61.65093200 41.19112100 50.62123400
 C   62.88479500 43.44807600 42.93626100
 H   63.71528800 41.22150900 50.65567400
 C   61.63426900 45.82619400 43.02017700
 C   61.63399100 45.88549700 50.34175100
 C   62.94058600 48.16604200 43.03140400
 H   63.69712800 45.91363100 50.45271300
 H   64.94857100 43.43424000 42.81187500
 C   61.82457500 55.40866200 29.71095400
 C   61.61704400 55.17353100 37.10433400
 C   63.09006600 57.76437800 29.59695800
 H   63.66755600 55.16213000 37.34690400
 H   65.17069500 53.03021300 29.71497800
 C   61.64039200 55.21332400 42.88863900
 C   61.61383400 55.20589800 50.17277300
 C   62.91031200 57.57108800 42.74028400
 H   63.67925000 55.18772100 50.28948800
 H   65.00774700 52.86103700 42.93164600
 C   61.79373000 50.71156400 29.68652800
 C   61.60176800 50.51421600 36.98971200
 C   63.10362900 53.04530400 29.76698900
 H   65.13150700 48.36284300 29.43729200
 C   61.66631100 50.51828500 42.99044600
 C   61.60229600 50.55240400 50.24141000
 C   62.94494000 52.85999600 42.98844700
 H   65.00336500 48.14855300 42.94822900
 H   41.78924100 71.22630400 30.06656200
 H   44.45256200 70.99928800 36.53352800
 H   41.78317500 71.09220500 43.21964800
 H   44.27032500 70.84982400 50.94373700
 C   45.47025000 69.42655400 30.03175400
 C   45.48630300 69.21770800 36.63035700
 H   46.50829500 71.21199900 30.09177700
 C   48.10168600 69.22912400 36.89905400
 C   49.54698100 67.07624300 29.72395500
 C   49.49273100 66.93915700 36.98362900
 H   50.58785500 68.86229300 29.69485400
 C   52.17656300 66.90917200 36.99947600
 H   49.11922700 71.01765900 37.00543900
 C   45.43260400 69.26903600 43.05446800
 C   45.31499400 69.06688500 50.73151500
 H   46.48851300 71.04147500 42.99693400
 C   47.95070200 69.13715700 50.61676900
 C   49.47355200 66.89469600 42.86680300
 C   49.36996600 66.88872700 50.38989500
 H   50.52703000 68.66005200 42.69693300
 C   52.05332300 66.89205800 50.28889900
 H   48.96765800 70.94294500 50.71207000
 H   57.29185700 66.35803900 37.04718100
 H   57.14599300 66.41813200 50.22287000
 H   53.19046700 68.70735800 37.09097400
 H   53.06540000 68.68712600 50.41826600
 C   57.61401600 62.44201000 29.71494900
 C   57.63746400 62.27309500 36.93380400
 H   58.62629600 64.24610100 29.65740000
 C   60.31909500 62.18131100 37.04950900
 C   57.52565100 62.21307300 42.78821300
 C   57.55583100 62.33809800 50.23450100
 H   58.54898600 64.00010500 42.67763500
 C   60.23354900 62.25482100 50.33727200
 C   53.56863100 64.73103500 29.63203700
 C   53.57713200 64.63283700 36.94135300
 C   56.25401300 64.57725800 36.91842400
 C   53.48928700 64.54058000 42.89184500
 C   53.45886500 64.63661600 50.18119900
 C   56.13726300 64.62204600 50.17285600
 C   61.72345000 60.10122100 29.55102300
 C   61.62234100 59.87631300 37.12995900
 H   62.75222600 61.89259300 29.49157900
 H   63.67481600 59.85898500 37.34475800
 H   65.15699300 57.78528200 29.58555300
 H   61.35828900 63.95766500 37.20808900
 C   61.58521500 59.86334900 42.66923500
 C   61.59147000 59.91764700 50.45516300
 H   62.62978000 61.65662800 42.58781300
 H   63.68023100 59.93079300 50.48411700
 H   64.99720400 57.58416200 42.71382800
 H   61.28988600 64.04467000 50.27484200
 H   63.66449400 50.56360000 50.34102300
 H   36.51413000 34.61856700 50.83405900
 H   36.21228600 66.09519700 50.84129700
 H   27.12986100 50.59609500 43.21246300
 H   54.52070800 66.31930900 42.71036800
 H   63.65342500 50.50544200 37.23459700
 H   54.41159400 34.70844800 43.27835500
 H   36.33599100 34.75067400 36.62808400
 H   36.38641200 66.38459500 36.40500800
 H   54.60222000 66.52277700 29.58100400
 H   27.32427000 50.74980200 28.93194300
 H   54.55962600 34.93747900 29.16226600
Li   32.09565700 41.19041700 26.17873100
Li   30.65912500 48.00821600 32.92190900
Li   58.86002400 60.08087700 53.56534400
Li   36.12895200 38.75572600 33.04547900
Li   60.46203000 57.72839100 26.40162600
Li   42.51948100 36.24271600 33.35692700
Li   30.45482900 57.22945700 53.23697500
Li   35.72202800 62.23872500 46.65262000
Li   47.05648000 33.92075000 53.12723900
Li   30.37188300 48.01045900 46.62038500
Li   51.83999100 39.15520300 26.45345300
Li   35.76802500 39.02217900 47.02680500
Li   44.13107300 67.23111100 26.67404100
Li   35.95204800 62.73254300 32.81127700
Li   30.44933300 53.18991700 32.84028300
Li   40.37063800 36.15705900 46.73381000
Li   55.31591000 38.56465400 47.03845200
Li   60.56188200 48.14875500 46.54742500
Li   44.50952000 67.25620600 46.66567600
Li   50.64501100 65.04344000 46.67170500
Li   50.61294400 65.06648900 33.43554300
Li   40.14022000 64.64190000 39.88646600
Li   60.43383400 53.06931400 46.47866000
Li   50.60661800 36.08364300 39.66564000
Li   30.84799200 42.24884800 46.80849200
Li   60.73417700 47.98848000 33.14602600
Li   55.10291200 62.56984200 33.38855000
Li   60.66245200 53.18010300 33.27947300
Li   60.53183600 43.03887300 46.58845200
Li   30.39784500 52.90773800 39.74806700
Li   55.12568500 62.42268100 46.61362700
Li   55.04678300 38.77798500 39.62735100
Li   31.43989300 60.04759900 32.55742100
Li   44.06208300 52.87750000 40.05837000
Li   59.42939100 41.35135900 33.08593500
Li   50.84385500 45.84380200 39.72428200
Li   34.83291300 36.83114600 40.07465500
Li   42.79982900 45.92440200 39.79356000
Li   59.55296500 59.87693700 33.47209800
Li   50.79198600 55.12960400 39.71748300
Li   38.83718500 61.49939600 53.73710200
Li   39.07889000 66.18744700 46.92300400
Li   30.60195200 42.56547000 33.14837800
Li   43.71555000 56.08645000 53.10799600
Li   31.40815500 59.89039000 40.20762000
Li   41.38286700 59.06955400 57.59513700
Li   56.16464700 36.84093400 32.61077600
Li   37.58959000 62.58681100 58.91554700
Li   60.65603200 58.39148700 46.47789200
Li   43.24308000 56.99088000 55.99104000
Li   44.24292000 32.49480000 39.99360000
