CRYSTAL
PRIMVEC 
      94.48631565       0.00000000       0.00000000
       0.00000000      94.48631565       0.00000000
       0.00000000       0.00000000      94.48631565


CONVVEC 
      94.48631565       0.00000000       0.00000000
       0.00000000      94.48631565       0.00000000
       0.00000000       0.00000000      94.48631565
PRIMCOORD 
  612     1
 C   45.46827400 50.72645700 30.68967400
 C   45.40330900 50.55899500 36.80753100
 C   46.81831600 53.05796200 30.72728700
 C   48.09339400 50.55979400 36.82594000
 C   49.51146200 48.39808400 30.71713700
 C   49.43919000 48.23303300 36.81996800
 C   50.85819700 50.72891500 30.74349400
 C   52.12877100 48.23595500 36.81525500
 C   45.47590800 55.39150800 30.70733600
 C   45.41177300 55.22009100 36.82778800
 C   46.83151100 57.72576400 30.72557500
 C   48.09779300 55.21814500 36.84523500
 C   49.51341400 53.05622200 30.75264100
 C   49.43894900 52.88817300 36.84406200
 C   50.86608400 55.39052400 30.76293700
 C   52.12811700 52.88906700 36.84612000
 C   45.39555500 50.51380300 42.97825400
 C   45.36828900 50.40779100 49.05445000
 C   46.74188300 52.84344600 42.97673700
 C   48.06231800 50.40920400 49.02369800
 C   49.43445300 48.18278600 42.94882300
 C   49.41408300 48.07493300 49.04952200
 C   50.77824000 50.51128100 42.93774300
 C   52.10986800 48.07674900 49.11971100
 C   45.39934200 55.17382900 42.99085200
 C   45.36707700 55.07486500 49.07521200
 C   46.74865600 57.50417500 42.99178200
 C   48.05771000 55.07465900 49.02650900
 C   49.43382300 52.84103200 42.95933200
 C   49.40255500 52.74342700 49.01241100
 C   50.77994200 55.17058400 42.96492500
 C   52.09921200 52.74696500 49.05987000
 C   57.60896300 48.40239800 30.69412000
 C   57.50588700 48.23943800 36.75942900
 C   58.95497900 50.72554500 30.70087100
 C   60.22276800 48.24647100 36.72680900
 C   57.51363200 48.18955500 42.72479400
 C   57.47813700 48.08470900 49.46709100
 C   58.85667900 50.52795600 42.67476800
 C   60.20027200 48.09663700 49.77451900
 C   53.55745600 50.72841900 30.74459900
 C   53.46996200 50.56336100 36.82349100
 C   54.90477900 53.05649300 30.76120100
 C   56.16551900 50.56610800 36.79541800
 C   53.47342400 50.51279600 42.89593600
 C   53.44890800 50.41822300 49.14973800
 C   54.81767800 52.84234600 42.89628800
 C   56.14028200 50.42656500 49.30815400
 C   57.62259700 43.75563900 30.69374700
 C   57.51328200 43.58149800 36.73969400
 C   58.95811800 46.07310600 30.66274200
 C   60.22990300 43.60446300 36.73014000
 C   57.52419100 43.52920700 42.74737300
 C   57.51104900 43.42076100 49.39231600
 C   58.86493400 45.84544200 42.68492400
 C   60.21594800 43.44951800 49.44894300
 C   53.56293300 46.07515600 30.72582900
 C   53.47633800 45.90759800 36.78895500
 C   54.90842800 48.40453500 30.72235500
 C   56.17004500 45.91280000 36.76263100
 C   53.47285000 45.85585500 42.86689400
 C   53.45782900 45.74909700 49.18014000
 C   54.81546900 48.18643200 42.85126500
 C   56.15561600 45.75777500 49.32966600
 C   57.60767400 57.71401200 30.84017400
 C   57.50813400 57.55267800 36.87900200
 C   58.95357300 60.10099900 30.84933200
 C   60.22696000 57.53358000 36.88542500
 C   57.51585700 57.48834900 42.93196800
 C   57.48406400 57.42085700 49.00617600
 C   58.85767700 59.84841100 42.96449200
 C   60.22187300 57.38744600 49.03543100
 C   45.50738700 64.73175600 30.72740700
 C   45.45604700 64.54205300 36.79673800
 C   46.90926800 67.08471400 30.80228000
 C   48.13020000 64.53708700 36.83977600
 C   49.54038300 62.39216400 30.75087800
 C   49.46947300 62.20716400 36.86519600
 C   50.92106800 64.75201300 30.76293500
 C   52.15171500 62.20261600 36.89586500
 C   45.41390900 64.49429500 42.84310000
 C   45.41253600 64.40116200 49.64781600
 C   46.80885800 66.83999100 42.79642600
 C   48.08095800 64.41089900 49.43125300
 C   49.44813800 62.16129900 42.99843400
 C   49.42029900 62.07872000 49.23666100
 C   50.82126300 64.51525600 43.00295400
 C   52.10150600 62.08805900 49.13683500
 C   53.57410300 60.05275700 30.76909400
 C   53.48806700 59.87618500 36.89289900
 C   54.93502200 62.42335800 30.76311400
 C   56.17802000 59.86895100 36.90231800
 C   53.48082000 59.82214700 42.98793300
 C   53.43325800 59.75731400 49.03743500
 C   54.83864100 62.17762900 43.00448500
 C   56.13798400 59.75281100 48.98641200
 C   57.60299000 53.04247100 30.75586400
 C   57.50481800 52.89446500 36.80841300
 C   58.95285000 55.38401000 30.81503500
 C   60.22286300 52.89141600 36.79043100
 C   57.51243000 52.85006000 42.82321900
 C   57.48351000 52.76154200 49.27450100
 C   58.85767000 55.17796600 42.86063200
 C   60.21559300 52.76171200 49.42217000
 C   45.49694000 60.05774700 30.68810400
 C   45.42792400 59.87823900 36.82809100
 C   46.86186600 62.38760400 30.72194600
 C   48.11233600 59.87513900 36.84998400
 C   49.52623800 57.72405000 30.75668500
 C   49.44812100 57.54608900 36.86066800
 C   50.88095800 60.05846700 30.75421700
 C   52.13666200 57.54440900 36.87384600
 C   45.40733500 59.83481500 42.97914900
 C   45.37469500 59.73912600 49.28356500
 C   46.76403700 62.16156200 42.96709300
 C   48.06484700 59.74272700 49.18305200
 C   49.43797800 57.50077400 42.98467900
 C   49.40439100 57.41358600 49.05533300
 C   50.79017400 59.83259100 42.99772400
 C   52.09476400 57.41681700 49.02147900
 C   53.55683100 55.38777800 30.77659700
 C   53.47400600 55.21901000 36.86069100
 C   54.90037400 57.72814300 30.78749600
 C   56.16752700 55.21908100 36.85002700
 C   53.47129000 55.16719500 42.94236300
 C   53.44060700 55.07914000 49.04123900
 C   54.82109300 57.49925200 42.95593800
 C   56.13799700 55.07071100 49.09891000
 H   27.25340100 41.37894400 29.88225600
 H   28.24371800 39.47519700 36.83621600
 H   27.20283300 41.19717300 42.91498300
 H   28.21749800 39.32509600 50.08285100
 H   41.84158900 30.30695600 29.82377700
 C   42.88830800 32.09104000 29.82900800
 H   44.50526100 30.12236000 37.03743000
 H   41.74046300 30.08252100 42.78927100
 C   42.77970300 31.86975100 42.85631900
 H   44.40796100 29.96422000 49.35144500
 H   29.59031100 37.29332300 29.77930300
 C   30.63466900 39.07606600 29.79043100
 H   32.27248500 37.13709900 36.98146700
 H   33.70657000 34.89774300 29.63977000
 C   34.72983800 36.69262800 29.65771500
 H   29.52002900 37.13464400 42.88260500
 C   30.55288300 38.92439600 42.86417200
 H   32.26207600 36.99548400 50.29247800
 H   33.56949800 34.75563300 42.78031100
 C   34.60872100 36.54101100 42.81317000
 H   37.80900900 32.60215400 29.51416500
 C   38.81945900 34.40706100 29.53369700
 H   40.43213500 32.43896500 37.07511600
 H   37.67024900 32.39818900 42.66447700
 C   38.69126600 34.19281500 42.76135400
 H   40.36020600 32.30203900 50.06187800
 H   46.49061000 30.30937100 30.33034500
 H   46.41648400 30.11200200 42.99113400
 H   25.84863200 48.21051800 37.00974900
 C   27.91477200 48.22130900 36.97358800
 H   25.81306500 48.05051400 50.12207600
 C   27.88054600 48.06914400 50.09211600
 H   25.88070400 43.51320300 36.92070500
 H   27.24816600 46.09948600 29.63693600
 C   27.94900200 43.51347500 36.89693400
 H   25.85177400 43.36415200 50.12854200
 H   27.20044100 45.85211600 42.69718800
 C   27.91994100 43.36298500 50.12558500
 H   25.89688400 57.63860100 37.07562700
 H   27.32658100 60.12075400 29.83028300
 C   27.96520600 57.63884700 37.06062400
 H   25.81563700 57.45213700 49.33192100
 H   27.22504300 59.86988000 43.09789800
 C   27.88073800 57.44451300 49.42126600
 H   25.85836800 52.94943900 37.09280100
 H   27.30466900 55.45595600 29.64386500
 C   27.92457900 52.93450500 37.05514900
 H   25.78835800 52.74657900 49.78336000
 H   27.22179300 55.22281800 43.11799100
 C   27.85656800 52.74572900 49.77256200
 C   29.31977100 41.37836100 29.85704900
 C   29.26153000 41.27511200 36.84645300
 C   30.59885600 43.74408000 29.85503100
 C   31.95343800 41.20653800 36.86230800
 C   33.33138800 38.97935100 29.74678400
 C   33.31492700 38.92290200 36.92025700
 C   34.68888600 41.38096300 29.86865400
 C   35.97949900 38.85667700 37.07726200
 C   29.31572100 46.09465800 29.71528400
 C   29.22169200 45.88698600 36.97582900
 C   30.61949700 48.41797600 29.63916000
 C   31.94377600 45.87299500 36.91556000
 C   33.34100900 43.71782400 29.92845600
 C   33.29045200 43.55406800 36.86793400
 C   34.69269800 46.07315900 30.01380100
 C   35.99215100 43.55382900 36.85458000
 C   29.27017500 41.17665600 42.88733100
 C   29.23381100 41.12496500 50.10135900
 C   30.56119500 43.54239900 42.84666100
 C   31.92466600 41.06936700 50.09668600
 C   33.24505800 38.83778200 42.78214500
 C   33.29716900 38.78515800 50.19924300
 C   34.60108100 41.19679900 42.82454100
 C   35.95846000 38.73686300 50.23524500
 C   29.26755400 45.85827600 42.76914800
 C   29.19278800 45.74083800 50.12835400
 C   30.54942000 48.21340900 42.70459100
 C   31.91102400 45.73376100 49.98900600
 C   33.26753700 43.52376800 42.86238500
 C   33.25889200 43.41629800 49.97506200
 C   34.61747500 45.86476100 42.90177500
 C   35.96098300 43.41612700 49.83019100
 C   41.46260400 39.06847100 29.84983000
 C   41.40107100 38.88898600 36.94713400
 C   42.79632900 41.40403400 30.16183900
 C   44.09133300 38.89750900 36.92033200
 C   41.36252400 38.85857300 42.91596900
 C   41.38189900 38.75372100 49.81371100
 C   42.70365600 41.19601200 42.98650000
 C   44.05683200 38.74862800 49.52831200
 C   37.41138300 41.38133900 29.93090100
 C   37.34150000 41.23058100 36.93446800
 C   38.73867800 43.72201400 30.16885900
 C   40.03669100 41.22603100 36.87920100
 C   37.31281000 41.19629500 42.90118000
 C   37.31298600 41.10181600 49.94504900
 C   38.66121300 43.52883000 42.97571600
 C   40.01235500 41.07784400 49.72233300
 C   41.47552700 34.38572100 29.61975100
 C   41.44974200 34.23680800 37.04347300
 C   42.84456000 36.73605500 29.68818900
 C   44.11286300 34.20745600 37.03472300
 C   41.35890500 34.16468400 42.78968900
 C   41.38597600 34.09501100 49.94739800
 C   42.72959100 36.51388700 42.88842000
 C   44.04255100 34.04239900 49.59182400
 C   37.41639000 36.66048400 29.57674300
 C   37.36772100 36.56803500 36.97903500
 C   38.77620700 39.04637600 29.75679400
 C   40.03500200 36.51755800 37.01018700
 C   37.28453200 36.47671200 42.79272500
 C   37.34830100 36.44165900 50.09876300
 C   38.65978100 38.85473100 42.88479500
 C   40.02404400 36.37750100 50.12969200
 C   41.42336700 48.39397300 30.52066200
 C   41.37110600 48.22886300 36.77590500
 C   42.77077000 50.72770700 30.61798500
 C   44.05926200 48.22897500 36.78771300
 C   41.35691300 48.18894100 42.99339900
 C   41.33243700 48.07503700 49.23576500
 C   42.70376000 50.51807500 42.99247400
 C   44.02562600 48.07125400 49.12235500
 C   29.37311600 55.44337600 29.72763300
 C   29.23658900 55.25915000 37.11334600
 C   30.67835000 57.76803200 29.81491600
 C   31.95923800 55.26768600 37.03872600
 C   33.37796600 53.10045800 29.91660600
 C   33.30263500 52.90972000 36.94213700
 C   34.72037100 55.42145300 30.04472200
 C   35.99559200 52.90014100 36.84775000
 C   29.28997900 55.21193600 43.11391500
 C   29.14835600 55.05585500 49.54254900
 C   30.58109500 57.51361400 43.10176400
 C   31.89146300 55.08601400 49.52636600
 C   33.28708300 52.87262300 43.02595700
 C   33.24594900 52.74255800 49.57816500
 C   34.63110800 55.19066100 43.05549900
 C   35.93881500 52.74623600 49.43675800
 C   37.38670500 50.73717800 30.31435600
 C   37.33257200 50.56345800 36.79450300
 C   38.73716500 53.07177700 30.41621800
 C   40.02699100 50.56099500 36.77975400
 C   37.31977500 50.52634700 43.00985000
 C   37.28837700 50.41247700 49.40432600
 C   38.66831400 52.85759400 43.03192500
 C   39.98453100 50.41051000 49.25696200
 C   41.43582500 43.72706200 30.29286300
 C   41.37718200 43.55891300 36.80741700
 C   42.77430000 46.06135900 30.48947600
 C   44.07082500 43.56360500 36.80020700
 C   41.35258800 43.52451700 42.99714300
 C   41.34542400 43.40707400 49.43339600
 C   42.70138300 45.85762700 42.99712300
 C   44.03869200 43.40515300 49.26571000
 C   29.34550200 50.76456600 29.76869600
 C   29.19540900 50.57370000 37.01772100
 C   30.65114100 53.11429100 29.65377300
 C   31.94496100 50.57129100 36.93271800
 C   33.35974800 48.40516900 29.90246900
 C   33.29613500 48.22872700 36.88134700
 C   34.69827800 50.74509000 30.06003500
 C   35.99020400 48.23026700 36.80325100
 C   29.27218400 50.54659100 42.90274700
 C   29.14890800 50.42552600 49.93911700
 C   30.56385900 52.87588200 43.02897800
 C   31.89946200 50.42310900 49.79333200
 C   33.28504600 48.19657500 42.86064000
 C   33.25390000 48.08943700 49.80451300
 C   34.62703000 50.53286000 42.97272500
 C   35.95014800 48.08228100 49.57240300
 C   37.38685600 46.05925300 30.21250200
 C   37.33860700 45.89171000 36.80092500
 C   38.73032000 48.39482600 30.37318300
 C   40.02529700 45.89134400 36.78401900
 C   37.31443400 45.86458500 42.96761900
 C   37.30005100 45.74988500 49.58108800
 C   38.66074600 48.19134300 42.99272900
 C   39.98805400 45.74194100 49.39755600
 C   45.46658100 32.09215400 30.11398800
 C   45.54279400 31.90876200 36.98205500
 C   46.88613600 34.39004200 30.20152200
 C   48.12534900 31.93030300 36.89026500
 H   49.18041900 30.15052200 36.87724400
 H   50.52461700 32.61541400 30.65426100
 C   45.52166900 36.73324200 30.03072100
 C   45.47461100 36.56011700 36.95925100
 C   46.84830100 39.06957000 30.29983000
 C   48.15373100 36.57475100 36.85446600
 C   49.51488500 34.41164400 30.49093900
 C   49.53009500 34.24097000 36.83538600
 C   50.90343900 36.68198400 30.60512300
 C   52.16896100 34.28594200 36.76711100
 C   45.36606300 31.89123100 42.96262100
 C   45.44616800 31.75108200 49.37198000
 C   46.77884300 34.19148900 42.98512500
 C   48.07996900 31.74470700 49.20849100
 H   49.10129600 29.95333100 49.06852700
 H   50.44720200 32.43373100 42.89933200
 C   45.41066400 36.52537800 42.97400000
 C   45.42708000 36.40013600 49.45468300
 C   46.75249300 38.85878500 42.98730100
 C   48.11595500 36.40143500 49.30093100
 C   49.42053000 34.22935400 42.93360900
 C   49.51325600 34.03857600 49.28009500
 C   50.79198600 36.50192500 42.84273800
 C   52.16344500 34.08498500 49.47965600
 H   53.20843300 32.49522500 36.76970400
 H   53.19765500 32.29298200 49.50925000
 C   57.63358100 39.12721600 30.73855100
 C   57.53815800 38.90344300 36.71936000
 C   58.96945000 41.40123400 30.69015500
 C   60.24951100 38.98416000 36.74065500
 C   57.51077500 38.92039600 42.56632900
 C   57.55157900 38.75980400 49.69105000
 C   58.86827900 41.18657400 42.71754400
 C   60.24589800 38.84234700 49.54432900
 C   45.46879000 46.06276500 30.58471600
 C   45.40992500 45.89793900 36.79168400
 C   46.81632900 48.39591400 30.67924500
 C   48.09732200 45.90113500 36.80281300
 C   49.52004500 43.74052300 30.64852300
 C   49.45056400 43.57361200 36.79449700
 C   50.86612300 46.06987500 30.70927700
 C   52.14093300 43.57933000 36.77938400
 C   45.39349700 45.85385800 42.99009000
 C   45.37904600 45.73963300 49.12374200
 C   46.74063800 48.18269400 42.97361400
 C   48.07488700 45.74139800 49.07260200
 C   49.43544100 43.52185900 42.94932300
 C   49.43180100 43.40580500 49.11333000
 C   50.78174200 45.85062200 42.92672500
 C   52.12372600 43.40835300 49.16231200
 C   53.59099700 41.41809900 30.74606600
 C   53.49652800 41.24959000 36.75152300
 C   54.92674800 43.75032200 30.72207500
 C   56.18641300 41.26197900 36.73247400
 C   53.47168000 41.21182800 42.74590700
 C   53.48247700 41.07408400 49.31510900
 C   54.82252200 43.52422200 42.79029400
 C   56.18930200 41.09352700 49.43868500
 H   57.24797200 34.85058900 36.72363900
 H   58.67813700 37.34323700 30.79495600
 H   57.24035300 34.68459100 50.09952900
 H   58.55308400 37.13836500 42.37560100
 C   45.48786800 41.40563900 30.33264800
 C   45.43025000 41.24226400 36.83193400
 C   46.82229700 43.73326600 30.54131000
 C   48.11642400 41.24280300 36.80619200
 C   49.52288200 39.05872300 30.55314200
 C   49.48097800 38.90985500 36.79997600
 C   50.87674800 41.40791900 30.67702700
 C   52.16340900 38.91823600 36.75151100
 C   45.39875500 41.19465600 42.99501700
 C   45.39715300 41.07376200 49.29588300
 C   46.74111900 43.52019400 42.99172100
 C   48.09626700 41.06938600 49.18921200
 C   49.43431600 38.85973400 42.92055300
 C   49.46300900 38.74588000 49.26215400
 C   50.78151300 41.19229500 42.87998000
 C   52.15305900 38.74399900 49.37298000
 C   53.58524900 36.74737600 30.66987200
 C   53.53265600 36.56949800 36.73426800
 C   54.96840100 39.04742400 30.76192900
 C   56.20376800 36.63863600 36.71649000
 C   53.45565700 36.56704200 42.61765200
 C   53.51965200 36.37218600 49.63334100
 C   54.82314100 38.85688900 42.52727700
 C   56.19232100 36.45859100 49.89737200
 H   61.27562800 37.18729500 36.76113500
 H   62.68977700 39.66999000 30.67502400
 H   61.28419800 37.05397500 49.54792400
 H   62.58248100 39.46318300 42.93955100
 H   28.26302900 61.67283300 36.99095700
 H   28.17825600 61.51445900 49.39017500
 C   29.39444900 60.13069100 29.79860200
 C   29.27787400 59.87191300 37.01145000
 C   30.68851800 62.38167800 29.73769100
 C   31.97505400 59.93710000 37.01896100
 C   33.37989900 57.76768400 29.91603800
 C   33.31096000 57.58411500 37.00042100
 C   34.72530800 60.08579400 29.88554500
 C   36.00725100 57.57482500 36.94294000
 H   29.66511400 64.17896800 29.71809900
 H   32.30036200 64.00273700 37.15217900
 C   33.38427400 62.45122000 29.72362900
 C   33.33563000 62.21331400 37.07507800
 C   34.75931600 64.74395600 29.74208200
 C   36.01389900 62.27005500 37.14752700
 C   29.29348700 59.89080700 43.07013200
 C   29.20480600 59.72256100 49.45745000
 C   30.57020400 62.13767100 42.95183200
 C   31.90085000 59.80043100 49.60518600
 C   33.28786300 57.52779900 43.04729200
 C   33.24004700 57.41586500 49.54496200
 C   34.61932000 59.84968400 42.92194400
 C   35.95665800 57.42207300 49.55515000
 H   29.54027700 63.93085200 42.88946000
 H   32.24398600 63.86760200 49.91086700
 C   33.27087700 62.21451300 42.84556400
 C   33.27748600 62.07667300 49.84911900
 C   34.63408700 64.50328500 42.75759600
 C   35.94422900 62.11422700 50.03054100
 C   41.44849200 57.73709900 30.51751400
 C   41.38616600 57.55733100 36.83261500
 C   42.80149800 60.06729600 30.55951400
 C   44.07444500 57.55264600 36.82353500
 C   41.36420300 57.51286200 42.99334200
 C   41.33227400 57.41471000 49.32183800
 C   42.71336500 59.84232500 42.95718000
 C   44.02393600 57.41177500 49.20347300
 C   37.43637200 60.08564400 30.09060400
 C   37.36390200 59.89574500 36.98110800
 C   38.79158900 62.42135300 30.12917800
 C   40.05287400 59.89746700 36.87560000
 C   37.33131700 59.85485300 42.89542600
 C   37.30358400 59.73897500 49.72492600
 C   38.68128400 62.18791000 42.80336300
 C   39.99600800 59.74928100 49.56450900
 C   41.43165900 53.06313500 30.57688600
 C   41.37362900 52.89142500 36.79964900
 C   42.78622000 55.39496400 30.62246000
 C   44.06107000 52.88963700 36.80963800
 C   41.36137600 52.85218200 43.01187900
 C   41.32748700 52.74324900 49.18317000
 C   42.70820200 55.17820800 43.00747500
 C   44.02020100 52.74189300 49.08713300
 C   37.40877700 55.41261600 30.28030400
 C   37.34699100 55.23408800 36.86372200
 C   38.76378500 57.74367200 30.32203100
 C   40.03222400 55.23003900 36.82631800
 C   37.32930000 55.18778000 43.03514700
 C   37.29185300 55.08281800 49.39062400
 C   38.67781300 57.51673600 42.99357600
 C   39.98260600 55.08096600 49.28125900
 C   41.43733900 67.10463100 30.44646000
 C   41.46232700 66.85985000 36.78140400
 C   42.86793100 69.40393100 30.62125200
 C   44.09434900 66.88535700 36.76361400
 C   41.34267400 66.84927600 42.56136300
 C   41.39132400 66.70579200 50.01661700
 C   42.78535700 69.14527000 42.41012900
 C   44.05762800 66.73204400 50.00173100
 H   37.78539900 68.87739100 30.01841800
 H   40.43573900 68.65586200 36.81562200
 H   37.67658000 68.63255500 42.52357300
 H   40.37171300 68.49795000 50.20448500
 C   41.46422000 62.40347200 30.42183400
 C   41.41295900 62.22661800 36.83605500
 C   42.82035200 64.74403600 30.55753600
 C   44.09116100 62.21813200 36.80770700
 C   41.37076500 62.17159100 42.85902100
 C   41.36106300 62.07679200 49.67060800
 C   42.72785000 64.50206800 42.75181700
 C   44.03431000 62.07064900 49.52596700
 H   33.72352400 66.53212100 29.67601000
 H   33.59457600 66.29059000 42.73015700
 C   37.43237100 64.80592400 29.93608200
 C   37.40299700 64.54935500 36.98713700
 C   38.80616000 67.08038100 30.10001600
 C   40.06222600 64.58594800 36.84701600
 C   37.31400600 64.56226800 42.69709500
 C   37.33792000 64.39017600 50.00637300
 C   38.69991300 66.83631200 42.61050300
 C   40.00355500 64.43518500 49.90383000
 C   61.67350600 41.47073000 30.64783800
 C   61.52730000 41.22227100 36.74786200
 C   62.96463200 43.70958800 30.60139900
 H   63.59369300 41.25187400 36.77996200
 C   61.67246400 46.08592600 30.61804900
 C   61.50645600 45.89798500 36.71786900
 C   62.96535200 48.38615800 30.61073200
 H   63.57469300 45.90092700 36.72711000
 H   65.03380100 43.72592900 30.58062600
 C   61.56698800 41.25794300 42.80346000
 C   61.52130900 41.09463500 49.37556300
 C   62.87377000 43.48716100 42.70185300
 H   63.58239300 41.12379100 49.21155800
 C   61.58694300 45.85953500 42.54113100
 C   61.49873800 45.76658700 49.61087700
 C   62.87445500 48.18516800 42.38090400
 H   63.56815600 45.77165700 49.65850300
 H   64.94135200 43.49159000 42.73799000
 C   61.69491500 55.35241800 30.79979600
 C   61.50547600 55.24243900 36.84823300
 C   62.98082000 57.75026800 30.83402300
 H   63.57375800 55.23957500 36.87830800
 H   65.05092900 53.04547000 30.70082600
 C   61.57716300 55.16210300 42.80748400
 C   61.50882600 55.07817700 49.23469600
 C   62.86703400 57.54392900 42.92126900
 H   63.57762000 55.07752900 49.21670300
 H   64.94194600 52.88824100 42.53983300
 C   61.68477700 50.71774700 30.66575000
 C   61.50406300 50.57012200 36.74324400
 C   62.98156300 53.04622000 30.69771800
 H   65.03559700 48.38109500 30.59613800
 C   61.58892200 50.53767300 42.49318200
 C   61.48878400 50.44284400 49.73000600
 C   62.87218900 52.87890800 42.61342200
 H   64.93406000 48.17897800 42.18678700
 H   41.83846400 71.19683500 30.60207400
 H   44.47257700 70.97351100 36.79921600
 H   41.76347500 70.92234600 42.13474900
 H   44.43125400 70.82716700 50.12464700
 C   45.48450400 69.39352600 30.80735800
 C   45.52093100 69.19071000 36.78810000
 H   46.52177600 71.17534200 30.94298600
 C   48.10228400 69.18801600 36.84710100
 C   49.55636300 67.03542500 30.80610900
 C   49.51022300 66.87555400 36.87023300
 H   50.59188700 68.82304000 30.89514700
 C   52.14487900 66.83374600 36.91794200
 H   49.15329000 70.97030200 36.89556000
 C   45.38828800 69.13876600 42.54176800
 C   45.46913200 69.04590400 49.92454800
 H   46.43263200 70.91474800 42.39596500
 C   48.04783600 69.05032100 49.60011100
 C   49.44294400 66.80095200 42.93002100
 C   49.45332600 66.75430600 49.41239300
 H   50.47351300 68.59278800 42.89849300
 C   52.08915600 66.73026600 49.25220800
 H   49.07366200 70.84421500 49.51199500
 H   57.22215200 66.28331400 36.95942000
 H   57.16156000 66.20258600 49.13549400
 H   53.18285900 68.62519000 36.94422000
 H   53.10760800 68.53163400 49.21634000
 C   57.60137100 62.36908900 30.79417800
 C   57.52492600 62.23009600 36.93072500
 H   58.63824700 64.15803000 30.84497900
 C   60.23710300 62.15548700 36.94433600
 C   57.51468100 62.10661600 42.99323300
 C   57.48502600 62.13962100 49.01765100
 H   58.55251400 63.89633900 42.99909200
 C   60.20108300 62.04892600 49.01459400
 C   53.57354200 64.69384600 30.75820100
 C   53.51549000 64.55151300 36.92302700
 C   56.18525800 64.49106400 36.94105700
 C   53.47567300 64.45319800 43.01940000
 C   53.46585800 64.45617800 49.16387500
 C   56.12881100 64.41005000 49.11557000
 C   61.67162000 60.01348200 30.87283400
 C   61.52033800 59.92001200 36.93376600
 H   62.69759500 61.80655900 30.92000800
 H   63.58730300 59.89504800 36.96402300
 H   65.04834400 57.74530100 30.84828800
 H   61.25713700 63.95601500 36.97646500
 C   61.56835500 59.77305200 42.97689000
 C   61.50596400 59.77747400 48.98538800
 H   62.58003600 61.57530000 43.03054200
 H   63.57234200 59.76782200 48.95985700
 H   64.93681500 57.53222800 42.93774200
 H   61.23706500 63.83767400 49.03132200
 H   63.54913700 50.44957500 49.93079800
 H   36.31630100 34.65302000 50.24204100
 H   36.31335800 66.18550500 50.10671100
 H   27.20505600 50.55416500 42.84601900
 H   54.51564400 66.24032700 43.03102900
 H   63.57185900 50.57038600 36.74946300
 H   54.47518600 34.77644600 42.37653500
 H   36.33740900 34.77815600 37.07221700
 H   36.37956300 66.34383300 37.08521800
 H   54.61017700 66.48309200 30.80708500
 H   27.27927900 50.77813300 29.63666100
 H   54.62009700 34.96042600 30.72017600
Li   31.90400500 41.45350000 26.53615600
Li   30.36262200 48.00045500 33.48840500
Li   58.83423500 59.71619900 52.33587600
Li   35.98189700 38.61289500 33.22218200
Li   60.27869800 57.74445300 27.51032400
Li   42.76948000 36.26330300 33.56961400
Li   30.41629300 57.42708600 52.83393400
Li   35.93128400 62.45017400 46.22568500
Li   46.99616200 33.94524100 52.67261500
Li   30.23221000 47.92775800 46.53896000
Li   52.43847800 39.03641700 27.35690700
Li   35.53007200 38.83661100 46.34036900
Li   44.39783800 67.12400500 27.35248700
Li   35.72058400 62.63181000 33.32386100
Li   30.37225400 53.31357500 33.53783000
Li   40.07923000 36.18807900 46.28358200
Li   55.74773500 37.32488300 46.05765800
Li   60.62784500 48.28581500 45.97495100
Li   43.81487500 67.08205400 46.11396900
Li   51.99168000 65.73948000 45.99264000
Li   52.74156000 65.48952000 33.74460000
